
---------- Begin Simulation Statistics ----------
sim_seconds                                 81.867122                       # Number of seconds simulated
sim_ticks                                81867122499000                       # Number of ticks simulated
final_tick                               81867122499000                       # Number of ticks from beginning of simulation (restored from checkpoints and never reset)
sim_freq                                 1000000000000                       # Frequency of simulated ticks
host_inst_rate                                 144444                       # Simulator instruction rate (inst/s)
host_op_rate                                   153887                       # Simulator op (including micro ops) rate (op/s)
host_tick_rate                             1692484820                       # Simulator tick rate (ticks/s)
host_mem_usage                                2682700                       # Number of bytes of host memory used
host_seconds                                 48370.97                       # Real time elapsed on the host
sim_insts                                  6986907371                       # Number of instructions simulated
sim_ops                                    7443665861                       # Number of ops (including micro ops) simulated
system.voltage_domain.voltage                       1                       # Voltage in Volts
system.clk_domain.clock                          1000                       # Clock period in ticks
system.bootmem.pwrStateResidencyTicks::UNDEFINED 81867122499000                       # Cumulative time (in ticks) in various power states
system.bootmem.bytes_read::ruby.network.ext_links3.ext_node          576                       # Number of bytes read from this memory
system.bootmem.bytes_read::total                  576                       # Number of bytes read from this memory
system.bootmem.num_reads::ruby.network.ext_links3.ext_node            9                       # Number of read requests responded to by this memory
system.bootmem.num_reads::total                     9                       # Number of read requests responded to by this memory
system.bootmem.bw_read::ruby.network.ext_links3.ext_node            7                       # Total read bandwidth from this memory (bytes/s)
system.bootmem.bw_read::total                       7                       # Total read bandwidth from this memory (bytes/s)
system.bootmem.bw_total::ruby.network.ext_links3.ext_node            7                       # Total bandwidth to/from this memory (bytes/s)
system.bootmem.bw_total::total                      7                       # Total bandwidth to/from this memory (bytes/s)
system.mem_ctrls.pwrStateResidencyTicks::UNDEFINED 81867122499000                       # Cumulative time (in ticks) in various power states
system.mem_ctrls.bytes_read::ruby.dir_cntrl0   2700867456                       # Number of bytes read from this memory
system.mem_ctrls.bytes_read::total         2700867456                       # Number of bytes read from this memory
system.mem_ctrls.bytes_written::ruby.dir_cntrl0   1093205824                       # Number of bytes written to this memory
system.mem_ctrls.bytes_written::total      1093205824                       # Number of bytes written to this memory
system.mem_ctrls.num_reads::ruby.dir_cntrl0     42201054                       # Number of read requests responded to by this memory
system.mem_ctrls.num_reads::total            42201054                       # Number of read requests responded to by this memory
system.mem_ctrls.num_writes::ruby.dir_cntrl0     17081341                       # Number of write requests responded to by this memory
system.mem_ctrls.num_writes::total           17081341                       # Number of write requests responded to by this memory
system.mem_ctrls.bw_read::ruby.dir_cntrl0     32990868                       # Total read bandwidth from this memory (bytes/s)
system.mem_ctrls.bw_read::total              32990868                       # Total read bandwidth from this memory (bytes/s)
system.mem_ctrls.bw_write::ruby.dir_cntrl0     13353417                       # Write bandwidth from this memory (bytes/s)
system.mem_ctrls.bw_write::total             13353417                       # Write bandwidth from this memory (bytes/s)
system.mem_ctrls.bw_total::ruby.dir_cntrl0     46344285                       # Total bandwidth to/from this memory (bytes/s)
system.mem_ctrls.bw_total::total             46344285                       # Total bandwidth to/from this memory (bytes/s)
system.mem_ctrls.readReqs                    42201054                       # Number of read requests accepted
system.mem_ctrls.writeReqs                   17081341                       # Number of write requests accepted
system.mem_ctrls.readBursts                  42201054                       # Number of DRAM read bursts, including those serviced by the write queue
system.mem_ctrls.writeBursts                 17081341                       # Number of DRAM write bursts, including those merged in the write queue
system.mem_ctrls.bytesReadDRAM             2640822016                       # Total number of bytes read from DRAM
system.mem_ctrls.bytesReadWrQ                60045440                       # Total number of bytes read from write queue
system.mem_ctrls.bytesWritten              1093136832                       # Total number of bytes written to DRAM
system.mem_ctrls.bytesReadSys              2700867456                       # Total read bytes from the system interface side
system.mem_ctrls.bytesWrittenSys           1093205824                       # Total written bytes from the system interface side
system.mem_ctrls.servicedByWrQ                 938210                       # Number of DRAM read bursts serviced by the write queue
system.mem_ctrls.mergedWrBursts                  1049                       # Number of DRAM write bursts merged with an existing one
system.mem_ctrls.neitherReadNorWriteReqs            0                       # Number of requests that are neither read nor write
system.mem_ctrls.perBankRdBursts::0           2936464                       # Per bank write bursts
system.mem_ctrls.perBankRdBursts::1           2433817                       # Per bank write bursts
system.mem_ctrls.perBankRdBursts::2           2545480                       # Per bank write bursts
system.mem_ctrls.perBankRdBursts::3           2631879                       # Per bank write bursts
system.mem_ctrls.perBankRdBursts::4           2279259                       # Per bank write bursts
system.mem_ctrls.perBankRdBursts::5           2493071                       # Per bank write bursts
system.mem_ctrls.perBankRdBursts::6           2291912                       # Per bank write bursts
system.mem_ctrls.perBankRdBursts::7           2616199                       # Per bank write bursts
system.mem_ctrls.perBankRdBursts::8           2499558                       # Per bank write bursts
system.mem_ctrls.perBankRdBursts::9           2630064                       # Per bank write bursts
system.mem_ctrls.perBankRdBursts::10          2653942                       # Per bank write bursts
system.mem_ctrls.perBankRdBursts::11          2765406                       # Per bank write bursts
system.mem_ctrls.perBankRdBursts::12          3046225                       # Per bank write bursts
system.mem_ctrls.perBankRdBursts::13          2335225                       # Per bank write bursts
system.mem_ctrls.perBankRdBursts::14          2743491                       # Per bank write bursts
system.mem_ctrls.perBankRdBursts::15          2360852                       # Per bank write bursts
system.mem_ctrls.perBankWrBursts::0           1376614                       # Per bank write bursts
system.mem_ctrls.perBankWrBursts::1           1040401                       # Per bank write bursts
system.mem_ctrls.perBankWrBursts::2           1132174                       # Per bank write bursts
system.mem_ctrls.perBankWrBursts::3           1029045                       # Per bank write bursts
system.mem_ctrls.perBankWrBursts::4           1198202                       # Per bank write bursts
system.mem_ctrls.perBankWrBursts::5            863060                       # Per bank write bursts
system.mem_ctrls.perBankWrBursts::6            988447                       # Per bank write bursts
system.mem_ctrls.perBankWrBursts::7           1017314                       # Per bank write bursts
system.mem_ctrls.perBankWrBursts::8           1229292                       # Per bank write bursts
system.mem_ctrls.perBankWrBursts::9            927528                       # Per bank write bursts
system.mem_ctrls.perBankWrBursts::10          1173683                       # Per bank write bursts
system.mem_ctrls.perBankWrBursts::11          1024991                       # Per bank write bursts
system.mem_ctrls.perBankWrBursts::12          1349278                       # Per bank write bursts
system.mem_ctrls.perBankWrBursts::13           809622                       # Per bank write bursts
system.mem_ctrls.perBankWrBursts::14          1057001                       # Per bank write bursts
system.mem_ctrls.perBankWrBursts::15           863611                       # Per bank write bursts
system.mem_ctrls.numRdRetry                         0                       # Number of times read queue was full causing retry
system.mem_ctrls.numWrRetry                      1488                       # Number of times write queue was full causing retry
system.mem_ctrls.totGap                  81867121902500                       # Total gap between requests
system.mem_ctrls.readPktSize::0                     0                       # Read request sizes (log2)
system.mem_ctrls.readPktSize::1                     0                       # Read request sizes (log2)
system.mem_ctrls.readPktSize::2                     0                       # Read request sizes (log2)
system.mem_ctrls.readPktSize::3                     0                       # Read request sizes (log2)
system.mem_ctrls.readPktSize::4                     0                       # Read request sizes (log2)
system.mem_ctrls.readPktSize::5                     0                       # Read request sizes (log2)
system.mem_ctrls.readPktSize::6              42201054                       # Read request sizes (log2)
system.mem_ctrls.writePktSize::0                    0                       # Write request sizes (log2)
system.mem_ctrls.writePktSize::1                    0                       # Write request sizes (log2)
system.mem_ctrls.writePktSize::2                    0                       # Write request sizes (log2)
system.mem_ctrls.writePktSize::3                    0                       # Write request sizes (log2)
system.mem_ctrls.writePktSize::4                    0                       # Write request sizes (log2)
system.mem_ctrls.writePktSize::5                    0                       # Write request sizes (log2)
system.mem_ctrls.writePktSize::6             17081341                       # Write request sizes (log2)
system.mem_ctrls.rdQLenPdf::0                23996589                       # What read queue length does an incoming req see
system.mem_ctrls.rdQLenPdf::1                 8488318                       # What read queue length does an incoming req see
system.mem_ctrls.rdQLenPdf::2                 2209749                       # What read queue length does an incoming req see
system.mem_ctrls.rdQLenPdf::3                 1078678                       # What read queue length does an incoming req see
system.mem_ctrls.rdQLenPdf::4                  745180                       # What read queue length does an incoming req see
system.mem_ctrls.rdQLenPdf::5                  684085                       # What read queue length does an incoming req see
system.mem_ctrls.rdQLenPdf::6                  745032                       # What read queue length does an incoming req see
system.mem_ctrls.rdQLenPdf::7                  867979                       # What read queue length does an incoming req see
system.mem_ctrls.rdQLenPdf::8                  358725                       # What read queue length does an incoming req see
system.mem_ctrls.rdQLenPdf::9                  351495                       # What read queue length does an incoming req see
system.mem_ctrls.rdQLenPdf::10                 360375                       # What read queue length does an incoming req see
system.mem_ctrls.rdQLenPdf::11                 355942                       # What read queue length does an incoming req see
system.mem_ctrls.rdQLenPdf::12                 339588                       # What read queue length does an incoming req see
system.mem_ctrls.rdQLenPdf::13                 299834                       # What read queue length does an incoming req see
system.mem_ctrls.rdQLenPdf::14                 194487                       # What read queue length does an incoming req see
system.mem_ctrls.rdQLenPdf::15                 186788                       # What read queue length does an incoming req see
system.mem_ctrls.rdQLenPdf::16                      0                       # What read queue length does an incoming req see
system.mem_ctrls.rdQLenPdf::17                      0                       # What read queue length does an incoming req see
system.mem_ctrls.rdQLenPdf::18                      0                       # What read queue length does an incoming req see
system.mem_ctrls.rdQLenPdf::19                      0                       # What read queue length does an incoming req see
system.mem_ctrls.rdQLenPdf::20                      0                       # What read queue length does an incoming req see
system.mem_ctrls.rdQLenPdf::21                      0                       # What read queue length does an incoming req see
system.mem_ctrls.rdQLenPdf::22                      0                       # What read queue length does an incoming req see
system.mem_ctrls.rdQLenPdf::23                      0                       # What read queue length does an incoming req see
system.mem_ctrls.rdQLenPdf::24                      0                       # What read queue length does an incoming req see
system.mem_ctrls.rdQLenPdf::25                      0                       # What read queue length does an incoming req see
system.mem_ctrls.rdQLenPdf::26                      0                       # What read queue length does an incoming req see
system.mem_ctrls.rdQLenPdf::27                      0                       # What read queue length does an incoming req see
system.mem_ctrls.rdQLenPdf::28                      0                       # What read queue length does an incoming req see
system.mem_ctrls.rdQLenPdf::29                      0                       # What read queue length does an incoming req see
system.mem_ctrls.rdQLenPdf::30                      0                       # What read queue length does an incoming req see
system.mem_ctrls.rdQLenPdf::31                      0                       # What read queue length does an incoming req see
system.mem_ctrls.wrQLenPdf::0                       1                       # What write queue length does an incoming req see
system.mem_ctrls.wrQLenPdf::1                       1                       # What write queue length does an incoming req see
system.mem_ctrls.wrQLenPdf::2                       1                       # What write queue length does an incoming req see
system.mem_ctrls.wrQLenPdf::3                       1                       # What write queue length does an incoming req see
system.mem_ctrls.wrQLenPdf::4                       1                       # What write queue length does an incoming req see
system.mem_ctrls.wrQLenPdf::5                       1                       # What write queue length does an incoming req see
system.mem_ctrls.wrQLenPdf::6                       1                       # What write queue length does an incoming req see
system.mem_ctrls.wrQLenPdf::7                       1                       # What write queue length does an incoming req see
system.mem_ctrls.wrQLenPdf::8                       1                       # What write queue length does an incoming req see
system.mem_ctrls.wrQLenPdf::9                       1                       # What write queue length does an incoming req see
system.mem_ctrls.wrQLenPdf::10                      1                       # What write queue length does an incoming req see
system.mem_ctrls.wrQLenPdf::11                      1                       # What write queue length does an incoming req see
system.mem_ctrls.wrQLenPdf::12                      1                       # What write queue length does an incoming req see
system.mem_ctrls.wrQLenPdf::13                      1                       # What write queue length does an incoming req see
system.mem_ctrls.wrQLenPdf::14                      1                       # What write queue length does an incoming req see
system.mem_ctrls.wrQLenPdf::15                 262556                       # What write queue length does an incoming req see
system.mem_ctrls.wrQLenPdf::16                 317593                       # What write queue length does an incoming req see
system.mem_ctrls.wrQLenPdf::17                 614987                       # What write queue length does an incoming req see
system.mem_ctrls.wrQLenPdf::18                 784036                       # What write queue length does an incoming req see
system.mem_ctrls.wrQLenPdf::19                 830976                       # What write queue length does an incoming req see
system.mem_ctrls.wrQLenPdf::20                 852531                       # What write queue length does an incoming req see
system.mem_ctrls.wrQLenPdf::21                 874592                       # What write queue length does an incoming req see
system.mem_ctrls.wrQLenPdf::22                 897075                       # What write queue length does an incoming req see
system.mem_ctrls.wrQLenPdf::23                 910707                       # What write queue length does an incoming req see
system.mem_ctrls.wrQLenPdf::24                 930023                       # What write queue length does an incoming req see
system.mem_ctrls.wrQLenPdf::25                 943461                       # What write queue length does an incoming req see
system.mem_ctrls.wrQLenPdf::26                 957788                       # What write queue length does an incoming req see
system.mem_ctrls.wrQLenPdf::27                 983448                       # What write queue length does an incoming req see
system.mem_ctrls.wrQLenPdf::28                1021339                       # What write queue length does an incoming req see
system.mem_ctrls.wrQLenPdf::29                 992973                       # What write queue length does an incoming req see
system.mem_ctrls.wrQLenPdf::30                 980116                       # What write queue length does an incoming req see
system.mem_ctrls.wrQLenPdf::31                 977076                       # What write queue length does an incoming req see
system.mem_ctrls.wrQLenPdf::32                 984617                       # What write queue length does an incoming req see
system.mem_ctrls.wrQLenPdf::33                 137813                       # What write queue length does an incoming req see
system.mem_ctrls.wrQLenPdf::34                 109056                       # What write queue length does an incoming req see
system.mem_ctrls.wrQLenPdf::35                  91458                       # What write queue length does an incoming req see
system.mem_ctrls.wrQLenPdf::36                  75670                       # What write queue length does an incoming req see
system.mem_ctrls.wrQLenPdf::37                  70826                       # What write queue length does an incoming req see
system.mem_ctrls.wrQLenPdf::38                  77759                       # What write queue length does an incoming req see
system.mem_ctrls.wrQLenPdf::39                  78181                       # What write queue length does an incoming req see
system.mem_ctrls.wrQLenPdf::40                  88208                       # What write queue length does an incoming req see
system.mem_ctrls.wrQLenPdf::41                 115953                       # What write queue length does an incoming req see
system.mem_ctrls.wrQLenPdf::42                 121262                       # What write queue length does an incoming req see
system.mem_ctrls.wrQLenPdf::43                  86622                       # What write queue length does an incoming req see
system.mem_ctrls.wrQLenPdf::44                 136275                       # What write queue length does an incoming req see
system.mem_ctrls.wrQLenPdf::45                  87288                       # What write queue length does an incoming req see
system.mem_ctrls.wrQLenPdf::46                  67059                       # What write queue length does an incoming req see
system.mem_ctrls.wrQLenPdf::47                  87578                       # What write queue length does an incoming req see
system.mem_ctrls.wrQLenPdf::48                 104221                       # What write queue length does an incoming req see
system.mem_ctrls.wrQLenPdf::49                 130750                       # What write queue length does an incoming req see
system.mem_ctrls.wrQLenPdf::50                  91161                       # What write queue length does an incoming req see
system.mem_ctrls.wrQLenPdf::51                  83400                       # What write queue length does an incoming req see
system.mem_ctrls.wrQLenPdf::52                  53558                       # What write queue length does an incoming req see
system.mem_ctrls.wrQLenPdf::53                  29135                       # What write queue length does an incoming req see
system.mem_ctrls.wrQLenPdf::54                  12772                       # What write queue length does an incoming req see
system.mem_ctrls.wrQLenPdf::55                   7436                       # What write queue length does an incoming req see
system.mem_ctrls.wrQLenPdf::56                   4970                       # What write queue length does an incoming req see
system.mem_ctrls.wrQLenPdf::57                   3397                       # What write queue length does an incoming req see
system.mem_ctrls.wrQLenPdf::58                   2469                       # What write queue length does an incoming req see
system.mem_ctrls.wrQLenPdf::59                   1985                       # What write queue length does an incoming req see
system.mem_ctrls.wrQLenPdf::60                   1658                       # What write queue length does an incoming req see
system.mem_ctrls.wrQLenPdf::61                   1506                       # What write queue length does an incoming req see
system.mem_ctrls.wrQLenPdf::62                   2143                       # What write queue length does an incoming req see
system.mem_ctrls.wrQLenPdf::63                   2814                       # What write queue length does an incoming req see
system.mem_ctrls.bytesPerActivate::samples     16840467                       # Bytes accessed per row activation
system.mem_ctrls.bytesPerActivate::mean    221.725283                       # Bytes accessed per row activation
system.mem_ctrls.bytesPerActivate::gmean   139.406499                       # Bytes accessed per row activation
system.mem_ctrls.bytesPerActivate::stdev   262.075507                       # Bytes accessed per row activation
system.mem_ctrls.bytesPerActivate::0-127      7465662     44.33%     44.33% # Bytes accessed per row activation
system.mem_ctrls.bytesPerActivate::128-255      4942607     29.35%     73.68% # Bytes accessed per row activation
system.mem_ctrls.bytesPerActivate::256-383      1592457      9.46%     83.14% # Bytes accessed per row activation
system.mem_ctrls.bytesPerActivate::384-511       751966      4.47%     87.60% # Bytes accessed per row activation
system.mem_ctrls.bytesPerActivate::512-639       434844      2.58%     90.18% # Bytes accessed per row activation
system.mem_ctrls.bytesPerActivate::640-767       276140      1.64%     91.82% # Bytes accessed per row activation
system.mem_ctrls.bytesPerActivate::768-895       186915      1.11%     92.93% # Bytes accessed per row activation
system.mem_ctrls.bytesPerActivate::896-1023       143901      0.85%     93.79% # Bytes accessed per row activation
system.mem_ctrls.bytesPerActivate::1024-1151      1045975      6.21%    100.00% # Bytes accessed per row activation
system.mem_ctrls.bytesPerActivate::total     16840467                       # Bytes accessed per row activation
system.mem_ctrls.rdPerTurnAround::samples      1010279                       # Reads before turning the bus around for writes
system.mem_ctrls.rdPerTurnAround::mean      40.842971                       # Reads before turning the bus around for writes
system.mem_ctrls.rdPerTurnAround::stdev     45.467687                       # Reads before turning the bus around for writes
system.mem_ctrls.rdPerTurnAround::0-255       1008178     99.79%     99.79% # Reads before turning the bus around for writes
system.mem_ctrls.rdPerTurnAround::256-511         1791      0.18%     99.97% # Reads before turning the bus around for writes
system.mem_ctrls.rdPerTurnAround::512-767          179      0.02%     99.99% # Reads before turning the bus around for writes
system.mem_ctrls.rdPerTurnAround::768-1023           37      0.00%     99.99% # Reads before turning the bus around for writes
system.mem_ctrls.rdPerTurnAround::1024-1279           20      0.00%     99.99% # Reads before turning the bus around for writes
system.mem_ctrls.rdPerTurnAround::1280-1535            5      0.00%     99.99% # Reads before turning the bus around for writes
system.mem_ctrls.rdPerTurnAround::1536-1791            1      0.00%     99.99% # Reads before turning the bus around for writes
system.mem_ctrls.rdPerTurnAround::1792-2047            5      0.00%     99.99% # Reads before turning the bus around for writes
system.mem_ctrls.rdPerTurnAround::2048-2303            5      0.00%     99.99% # Reads before turning the bus around for writes
system.mem_ctrls.rdPerTurnAround::2304-2559            4      0.00%     99.99% # Reads before turning the bus around for writes
system.mem_ctrls.rdPerTurnAround::2560-2815            4      0.00%    100.00% # Reads before turning the bus around for writes
system.mem_ctrls.rdPerTurnAround::2816-3071            9      0.00%    100.00% # Reads before turning the bus around for writes
system.mem_ctrls.rdPerTurnAround::3072-3327            8      0.00%    100.00% # Reads before turning the bus around for writes
system.mem_ctrls.rdPerTurnAround::3328-3583            5      0.00%    100.00% # Reads before turning the bus around for writes
system.mem_ctrls.rdPerTurnAround::3584-3839            9      0.00%    100.00% # Reads before turning the bus around for writes
system.mem_ctrls.rdPerTurnAround::3840-4095            5      0.00%    100.00% # Reads before turning the bus around for writes
system.mem_ctrls.rdPerTurnAround::4096-4351            4      0.00%    100.00% # Reads before turning the bus around for writes
system.mem_ctrls.rdPerTurnAround::4352-4607            5      0.00%    100.00% # Reads before turning the bus around for writes
system.mem_ctrls.rdPerTurnAround::4608-4863            2      0.00%    100.00% # Reads before turning the bus around for writes
system.mem_ctrls.rdPerTurnAround::4864-5119            2      0.00%    100.00% # Reads before turning the bus around for writes
system.mem_ctrls.rdPerTurnAround::5376-5631            1      0.00%    100.00% # Reads before turning the bus around for writes
system.mem_ctrls.rdPerTurnAround::total       1010279                       # Reads before turning the bus around for writes
system.mem_ctrls.wrPerTurnAround::samples      1010279                       # Writes before turning the bus around for reads
system.mem_ctrls.wrPerTurnAround::mean      16.906481                       # Writes before turning the bus around for reads
system.mem_ctrls.wrPerTurnAround::gmean     16.812180                       # Writes before turning the bus around for reads
system.mem_ctrls.wrPerTurnAround::stdev      2.114854                       # Writes before turning the bus around for reads
system.mem_ctrls.wrPerTurnAround::16-17        731414     72.40%     72.40% # Writes before turning the bus around for reads
system.mem_ctrls.wrPerTurnAround::18-19        234203     23.18%     95.58% # Writes before turning the bus around for reads
system.mem_ctrls.wrPerTurnAround::20-21         23086      2.29%     97.86% # Writes before turning the bus around for reads
system.mem_ctrls.wrPerTurnAround::22-23          6057      0.60%     98.46% # Writes before turning the bus around for reads
system.mem_ctrls.wrPerTurnAround::24-25          3034      0.30%     98.76% # Writes before turning the bus around for reads
system.mem_ctrls.wrPerTurnAround::26-27          2321      0.23%     98.99% # Writes before turning the bus around for reads
system.mem_ctrls.wrPerTurnAround::28-29          2019      0.20%     99.19% # Writes before turning the bus around for reads
system.mem_ctrls.wrPerTurnAround::30-31          3139      0.31%     99.50% # Writes before turning the bus around for reads
system.mem_ctrls.wrPerTurnAround::32-33          3378      0.33%     99.84% # Writes before turning the bus around for reads
system.mem_ctrls.wrPerTurnAround::34-35           425      0.04%     99.88% # Writes before turning the bus around for reads
system.mem_ctrls.wrPerTurnAround::36-37           626      0.06%     99.94% # Writes before turning the bus around for reads
system.mem_ctrls.wrPerTurnAround::38-39            85      0.01%     99.95% # Writes before turning the bus around for reads
system.mem_ctrls.wrPerTurnAround::40-41            34      0.00%     99.95% # Writes before turning the bus around for reads
system.mem_ctrls.wrPerTurnAround::42-43           193      0.02%     99.97% # Writes before turning the bus around for reads
system.mem_ctrls.wrPerTurnAround::44-45            38      0.00%     99.98% # Writes before turning the bus around for reads
system.mem_ctrls.wrPerTurnAround::46-47            33      0.00%     99.98% # Writes before turning the bus around for reads
system.mem_ctrls.wrPerTurnAround::48-49            31      0.00%     99.98% # Writes before turning the bus around for reads
system.mem_ctrls.wrPerTurnAround::50-51            25      0.00%     99.99% # Writes before turning the bus around for reads
system.mem_ctrls.wrPerTurnAround::52-53             9      0.00%     99.99% # Writes before turning the bus around for reads
system.mem_ctrls.wrPerTurnAround::54-55             5      0.00%     99.99% # Writes before turning the bus around for reads
system.mem_ctrls.wrPerTurnAround::56-57            13      0.00%     99.99% # Writes before turning the bus around for reads
system.mem_ctrls.wrPerTurnAround::58-59            12      0.00%     99.99% # Writes before turning the bus around for reads
system.mem_ctrls.wrPerTurnAround::60-61            13      0.00%     99.99% # Writes before turning the bus around for reads
system.mem_ctrls.wrPerTurnAround::62-63            11      0.00%     99.99% # Writes before turning the bus around for reads
system.mem_ctrls.wrPerTurnAround::64-65            13      0.00%     99.99% # Writes before turning the bus around for reads
system.mem_ctrls.wrPerTurnAround::66-67             7      0.00%     99.99% # Writes before turning the bus around for reads
system.mem_ctrls.wrPerTurnAround::68-69             7      0.00%    100.00% # Writes before turning the bus around for reads
system.mem_ctrls.wrPerTurnAround::70-71             6      0.00%    100.00% # Writes before turning the bus around for reads
system.mem_ctrls.wrPerTurnAround::72-73             6      0.00%    100.00% # Writes before turning the bus around for reads
system.mem_ctrls.wrPerTurnAround::74-75             6      0.00%    100.00% # Writes before turning the bus around for reads
system.mem_ctrls.wrPerTurnAround::76-77             2      0.00%    100.00% # Writes before turning the bus around for reads
system.mem_ctrls.wrPerTurnAround::78-79             6      0.00%    100.00% # Writes before turning the bus around for reads
system.mem_ctrls.wrPerTurnAround::80-81             3      0.00%    100.00% # Writes before turning the bus around for reads
system.mem_ctrls.wrPerTurnAround::82-83             3      0.00%    100.00% # Writes before turning the bus around for reads
system.mem_ctrls.wrPerTurnAround::84-85             3      0.00%    100.00% # Writes before turning the bus around for reads
system.mem_ctrls.wrPerTurnAround::88-89             1      0.00%    100.00% # Writes before turning the bus around for reads
system.mem_ctrls.wrPerTurnAround::90-91             2      0.00%    100.00% # Writes before turning the bus around for reads
system.mem_ctrls.wrPerTurnAround::94-95             1      0.00%    100.00% # Writes before turning the bus around for reads
system.mem_ctrls.wrPerTurnAround::96-97             4      0.00%    100.00% # Writes before turning the bus around for reads
system.mem_ctrls.wrPerTurnAround::98-99             1      0.00%    100.00% # Writes before turning the bus around for reads
system.mem_ctrls.wrPerTurnAround::106-107            4      0.00%    100.00% # Writes before turning the bus around for reads
system.mem_ctrls.wrPerTurnAround::total       1010279                       # Writes before turning the bus around for reads
system.mem_ctrls.totQLat                 1203757781188                       # Total ticks spent queuing
system.mem_ctrls.totMemAccLat            1977436106188                       # Total ticks spent from burst creation until serviced by the DRAM
system.mem_ctrls.totBusLat               206314220000                       # Total ticks spent in databus transfers
system.mem_ctrls.avgQLat                     29172.92                       # Average queueing delay per DRAM burst
system.mem_ctrls.avgBusLat                    5000.00                       # Average bus latency per DRAM burst
system.mem_ctrls.avgMemAccLat                47922.92                       # Average memory access latency per DRAM burst
system.mem_ctrls.avgRdBW                        32.26                       # Average DRAM read bandwidth in MiByte/s
system.mem_ctrls.avgWrBW                        13.35                       # Average achieved write bandwidth in MiByte/s
system.mem_ctrls.avgRdBWSys                     32.99                       # Average system read bandwidth in MiByte/s
system.mem_ctrls.avgWrBWSys                     13.35                       # Average system write bandwidth in MiByte/s
system.mem_ctrls.peakBW                      12800.00                       # Theoretical peak bandwidth in MiByte/s
system.mem_ctrls.busUtil                         0.36                       # Data bus utilization in percentage
system.mem_ctrls.busUtilRead                     0.25                       # Data bus utilization in percentage for reads
system.mem_ctrls.busUtilWrite                    0.10                       # Data bus utilization in percentage for writes
system.mem_ctrls.avgRdQLen                       1.08                       # Average read queue length when enqueuing
system.mem_ctrls.avgWrQLen                      27.29                       # Average write queue length when enqueuing
system.mem_ctrls.readRowHits                 30306995                       # Number of row buffer hits during reads
system.mem_ctrls.writeRowHits                11195637                       # Number of row buffer hits during writes
system.mem_ctrls.readRowHitRate                 73.45                       # Row buffer hit rate for reads
system.mem_ctrls.writeRowHitRate                65.55                       # Row buffer hit rate for writes
system.mem_ctrls.avgGap                    1380968.53                       # Average gap between requests
system.mem_ctrls.pageHitRate                    71.14                       # Row buffer hit rate, read and write combined
system.mem_ctrls_0.actEnergy              60298470960                       # Energy for activate commands per rank (pJ)
system.mem_ctrls_0.preEnergy              32049378405                       # Energy for precharge commands per rank (pJ)
system.mem_ctrls_0.readEnergy            144428498340                       # Energy for read commands per rank (pJ)
system.mem_ctrls_0.writeEnergy            45128241540                       # Energy for write commands per rank (pJ)
system.mem_ctrls_0.refreshEnergy         325904869680.000061                       # Energy for refresh commands per rank (pJ)
system.mem_ctrls_0.actBackEnergy         477452290860                       # Energy for active background per rank (pJ)
system.mem_ctrls_0.preBackEnergy          12582403680                       # Energy for precharge background per rank (pJ)
system.mem_ctrls_0.actPowerDownEnergy    1069157129910                       # Energy for active power-down per rank (pJ)
system.mem_ctrls_0.prePowerDownEnergy    183198605760                       # Energy for precharge power-down per rank (pJ)
system.mem_ctrls_0.selfRefreshEnergy     18729024766080                       # Energy for self refresh per rank (pJ)
system.mem_ctrls_0.totalEnergy           21079278237015                       # Total energy per rank (pJ)
system.mem_ctrls_0.averagePower            257.481607                       # Core power per rank (mW)
system.mem_ctrls_0.totalIdleTime         80787192678053                       # Total Idle time Per DRAM Rank
system.mem_ctrls_0.memoryStateTime::IDLE  16687394250                       # Time in different power states
system.mem_ctrls_0.memoryStateTime::REF  138055852000                       # Time in different power states
system.mem_ctrls_0.memoryStateTime::SREF 77965469391250                       # Time in different power states
system.mem_ctrls_0.memoryStateTime::PRE_PDN 477078536367                       # Time in different power states
system.mem_ctrls_0.memoryStateTime::ACT  925186541447                       # Time in different power states
system.mem_ctrls_0.memoryStateTime::ACT_PDN 2344644783686                       # Time in different power states
system.mem_ctrls_1.actEnergy              59942520540                       # Energy for activate commands per rank (pJ)
system.mem_ctrls_1.preEnergy              31860193860                       # Energy for precharge commands per rank (pJ)
system.mem_ctrls_1.readEnergy            150188207820                       # Energy for read commands per rank (pJ)
system.mem_ctrls_1.writeEnergy            44030731320                       # Energy for write commands per rank (pJ)
system.mem_ctrls_1.refreshEnergy         335094966960.000061                       # Energy for refresh commands per rank (pJ)
system.mem_ctrls_1.actBackEnergy         490803930390                       # Energy for active background per rank (pJ)
system.mem_ctrls_1.preBackEnergy          11359437120                       # Energy for precharge background per rank (pJ)
system.mem_ctrls_1.actPowerDownEnergy    1083198731070                       # Energy for active power-down per rank (pJ)
system.mem_ctrls_1.prePowerDownEnergy    196161044640                       # Energy for precharge power-down per rank (pJ)
system.mem_ctrls_1.selfRefreshEnergy     18709233313980                       # Energy for self refresh per rank (pJ)
system.mem_ctrls_1.totalEnergy           21111925042800                       # Total energy per rank (pJ)
system.mem_ctrls_1.averagePower            257.880385                       # Core power per rank (mW)
system.mem_ctrls_1.totalIdleTime         80761102320071                       # Total Idle time Per DRAM Rank
system.mem_ctrls_1.memoryStateTime::IDLE  13239704253                       # Time in different power states
system.mem_ctrls_1.memoryStateTime::REF  141965644000                       # Time in different power states
system.mem_ctrls_1.memoryStateTime::SREF 77874828600750                       # Time in different power states
system.mem_ctrls_1.memoryStateTime::PRE_PDN 510834968495                       # Time in different power states
system.mem_ctrls_1.memoryStateTime::ACT  950814334426                       # Time in different power states
system.mem_ctrls_1.memoryStateTime::ACT_PDN 2375439247076                       # Time in different power states
system.pwrStateResidencyTicks::UNDEFINED 81867122499000                       # Cumulative time (in ticks) in various power states
system.cf0.dma_read_full_pages                    185                       # Number of full page size DMA reads (not PRD).
system.cf0.dma_read_bytes                      757760                       # Number of bytes transfered via DMA reads (not PRD).
system.cf0.dma_read_txs                           185                       # Number of DMA read transactions (not PRD).
system.cf0.dma_write_full_pages                  7273                       # Number of full page size DMA writes.
system.cf0.dma_write_bytes                   29792768                       # Number of bytes transfered via DMA writes.
system.cf0.dma_write_txs                         7276                       # Number of DMA write transactions.
system.cpu.branchPred.lookups              1366040646                       # Number of BP lookups
system.cpu.branchPred.condPredicted        1099512947                       # Number of conditional branches predicted
system.cpu.branchPred.condIncorrect          77701199                       # Number of conditional branches incorrect
system.cpu.branchPred.BTBLookups            854130643                       # Number of BTB lookups
system.cpu.branchPred.BTBHits               630449894                       # Number of BTB hits
system.cpu.branchPred.BTBCorrect                    0                       # Number of correct BTB predictions (this stat may not work properly.
system.cpu.branchPred.BTBHitPct             73.811881                       # BTB Hit Percentage
system.cpu.branchPred.usedRAS                75592102                       # Number of times the RAS was used to get a target.
system.cpu.branchPred.RASInCorrect             305145                       # Number of incorrect RAS predictions.
system.cpu.branchPred.indirectLookups        21812238                       # Number of indirect predictor lookups.
system.cpu.branchPred.indirectHits           16590034                       # Number of indirect target hits.
system.cpu.branchPred.indirectMisses          5222204                       # Number of indirect misses.
system.cpu.branchPredindirectMispredicted      1926651                       # Number of mispredicted indirect branches.
system.cpu_voltage_domain.voltage                   1                       # Voltage in Volts
system.cpu_clk_domain.clock                       500                       # Clock period in ticks
system.cpu.dstage2_mmu.stage2_tlb.walker.pwrStateResidencyTicks::UNDEFINED 81867122499000                       # Cumulative time (in ticks) in various power states
system.cpu.dstage2_mmu.stage2_tlb.walker.walks            0                       # Table walker walks requested
system.cpu.dstage2_mmu.stage2_tlb.walker.walkRequestOrigin_Requested::Data            0                       # Table walker requests started/completed, data/inst
system.cpu.dstage2_mmu.stage2_tlb.walker.walkRequestOrigin_Requested::Inst            0                       # Table walker requests started/completed, data/inst
system.cpu.dstage2_mmu.stage2_tlb.walker.walkRequestOrigin_Requested::total            0                       # Table walker requests started/completed, data/inst
system.cpu.dstage2_mmu.stage2_tlb.walker.walkRequestOrigin_Completed::Data            0                       # Table walker requests started/completed, data/inst
system.cpu.dstage2_mmu.stage2_tlb.walker.walkRequestOrigin_Completed::Inst            0                       # Table walker requests started/completed, data/inst
system.cpu.dstage2_mmu.stage2_tlb.walker.walkRequestOrigin_Completed::total            0                       # Table walker requests started/completed, data/inst
system.cpu.dstage2_mmu.stage2_tlb.walker.walkRequestOrigin::total            0                       # Table walker requests started/completed, data/inst
system.cpu.dstage2_mmu.stage2_tlb.inst_hits            0                       # ITB inst hits
system.cpu.dstage2_mmu.stage2_tlb.inst_misses            0                       # ITB inst misses
system.cpu.dstage2_mmu.stage2_tlb.read_hits            0                       # DTB read hits
system.cpu.dstage2_mmu.stage2_tlb.read_misses            0                       # DTB read misses
system.cpu.dstage2_mmu.stage2_tlb.write_hits            0                       # DTB write hits
system.cpu.dstage2_mmu.stage2_tlb.write_misses            0                       # DTB write misses
system.cpu.dstage2_mmu.stage2_tlb.flush_tlb            0                       # Number of times complete TLB was flushed
system.cpu.dstage2_mmu.stage2_tlb.flush_tlb_mva            0                       # Number of times TLB was flushed by MVA
system.cpu.dstage2_mmu.stage2_tlb.flush_tlb_mva_asid            0                       # Number of times TLB was flushed by MVA & ASID
system.cpu.dstage2_mmu.stage2_tlb.flush_tlb_asid            0                       # Number of times TLB was flushed by ASID
system.cpu.dstage2_mmu.stage2_tlb.flush_entries            0                       # Number of entries that have been flushed from TLB
system.cpu.dstage2_mmu.stage2_tlb.align_faults            0                       # Number of TLB faults due to alignment restrictions
system.cpu.dstage2_mmu.stage2_tlb.prefetch_faults            0                       # Number of TLB faults due to prefetch
system.cpu.dstage2_mmu.stage2_tlb.domain_faults            0                       # Number of TLB faults due to domain restrictions
system.cpu.dstage2_mmu.stage2_tlb.perms_faults            0                       # Number of TLB faults due to permissions restrictions
system.cpu.dstage2_mmu.stage2_tlb.read_accesses            0                       # DTB read accesses
system.cpu.dstage2_mmu.stage2_tlb.write_accesses            0                       # DTB write accesses
system.cpu.dstage2_mmu.stage2_tlb.inst_accesses            0                       # ITB inst accesses
system.cpu.dstage2_mmu.stage2_tlb.hits              0                       # DTB hits
system.cpu.dstage2_mmu.stage2_tlb.misses            0                       # DTB misses
system.cpu.dstage2_mmu.stage2_tlb.accesses            0                       # DTB accesses
system.cpu.dtb.walker.pwrStateResidencyTicks::UNDEFINED 81867122499000                       # Cumulative time (in ticks) in various power states
system.cpu.dtb.walker.walks                   9799652                       # Table walker walks requested
system.cpu.dtb.walker.walksLong               9799652                       # Table walker walks initiated with long descriptors
system.cpu.dtb.walker.walksLongTerminationLevel::Level2        44344                       # Level at which table walker walks with long descriptors terminate
system.cpu.dtb.walker.walksLongTerminationLevel::Level3      1368133                       # Level at which table walker walks with long descriptors terminate
system.cpu.dtb.walker.walksSquashedBefore      1311886                       # Table walks squashed before starting
system.cpu.dtb.walker.walkWaitTime::samples      8487766                       # Table walker wait (enqueue to first request) latency
system.cpu.dtb.walker.walkWaitTime::mean   615.998839                       # Table walker wait (enqueue to first request) latency
system.cpu.dtb.walker.walkWaitTime::stdev  8435.728865                       # Table walker wait (enqueue to first request) latency
system.cpu.dtb.walker.walkWaitTime::0-65535      8456108     99.63%     99.63% # Table walker wait (enqueue to first request) latency
system.cpu.dtb.walker.walkWaitTime::65536-131071        24152      0.28%     99.91% # Table walker wait (enqueue to first request) latency
system.cpu.dtb.walker.walkWaitTime::131072-196607         5210      0.06%     99.97% # Table walker wait (enqueue to first request) latency
system.cpu.dtb.walker.walkWaitTime::196608-262143         1053      0.01%     99.99% # Table walker wait (enqueue to first request) latency
system.cpu.dtb.walker.walkWaitTime::262144-327679          533      0.01%     99.99% # Table walker wait (enqueue to first request) latency
system.cpu.dtb.walker.walkWaitTime::327680-393215          278      0.00%     99.99% # Table walker wait (enqueue to first request) latency
system.cpu.dtb.walker.walkWaitTime::393216-458751          162      0.00%    100.00% # Table walker wait (enqueue to first request) latency
system.cpu.dtb.walker.walkWaitTime::458752-524287           56      0.00%    100.00% # Table walker wait (enqueue to first request) latency
system.cpu.dtb.walker.walkWaitTime::524288-589823           48      0.00%    100.00% # Table walker wait (enqueue to first request) latency
system.cpu.dtb.walker.walkWaitTime::589824-655359          145      0.00%    100.00% # Table walker wait (enqueue to first request) latency
system.cpu.dtb.walker.walkWaitTime::655360-720895           17      0.00%    100.00% # Table walker wait (enqueue to first request) latency
system.cpu.dtb.walker.walkWaitTime::720896-786431            3      0.00%    100.00% # Table walker wait (enqueue to first request) latency
system.cpu.dtb.walker.walkWaitTime::786432-851967            1      0.00%    100.00% # Table walker wait (enqueue to first request) latency
system.cpu.dtb.walker.walkWaitTime::total      8487766                       # Table walker wait (enqueue to first request) latency
system.cpu.dtb.walker.walkCompletionTime::samples      2550041                       # Table walker service (enqueue to completion) latency
system.cpu.dtb.walker.walkCompletionTime::mean 25136.741126                       # Table walker service (enqueue to completion) latency
system.cpu.dtb.walker.walkCompletionTime::gmean  8888.109891                       # Table walker service (enqueue to completion) latency
system.cpu.dtb.walker.walkCompletionTime::stdev 50746.336855                       # Table walker service (enqueue to completion) latency
system.cpu.dtb.walker.walkCompletionTime::0-131071      2480702     97.28%     97.28% # Table walker service (enqueue to completion) latency
system.cpu.dtb.walker.walkCompletionTime::131072-262143        51634      2.02%     99.31% # Table walker service (enqueue to completion) latency
system.cpu.dtb.walker.walkCompletionTime::262144-393215         9848      0.39%     99.69% # Table walker service (enqueue to completion) latency
system.cpu.dtb.walker.walkCompletionTime::393216-524287         1680      0.07%     99.76% # Table walker service (enqueue to completion) latency
system.cpu.dtb.walker.walkCompletionTime::524288-655359         5877      0.23%     99.99% # Table walker service (enqueue to completion) latency
system.cpu.dtb.walker.walkCompletionTime::655360-786431          268      0.01%    100.00% # Table walker service (enqueue to completion) latency
system.cpu.dtb.walker.walkCompletionTime::786432-917503           27      0.00%    100.00% # Table walker service (enqueue to completion) latency
system.cpu.dtb.walker.walkCompletionTime::917504-1.04858e+06            1      0.00%    100.00% # Table walker service (enqueue to completion) latency
system.cpu.dtb.walker.walkCompletionTime::1.17965e+06-1.31072e+06            2      0.00%    100.00% # Table walker service (enqueue to completion) latency
system.cpu.dtb.walker.walkCompletionTime::1.31072e+06-1.44179e+06            2      0.00%    100.00% # Table walker service (enqueue to completion) latency
system.cpu.dtb.walker.walkCompletionTime::total      2550041                       # Table walker service (enqueue to completion) latency
system.cpu.dtb.walker.walksPending::samples 5627137169704                       # Table walker pending requests distribution
system.cpu.dtb.walker.walksPending::mean     0.781164                       # Table walker pending requests distribution
system.cpu.dtb.walker.walksPending::stdev     0.450078                       # Table walker pending requests distribution
system.cpu.dtb.walker.walksPending::0-1  5619729514204     99.87%     99.87% # Table walker pending requests distribution
system.cpu.dtb.walker.walksPending::2-3    4124098000      0.07%     99.94% # Table walker pending requests distribution
system.cpu.dtb.walker.walksPending::4-5    1546447500      0.03%     99.97% # Table walker pending requests distribution
system.cpu.dtb.walker.walksPending::6-7     526150000      0.01%     99.98% # Table walker pending requests distribution
system.cpu.dtb.walker.walksPending::8-9     844157500      0.02%     99.99% # Table walker pending requests distribution
system.cpu.dtb.walker.walksPending::10-11     96393500      0.00%    100.00% # Table walker pending requests distribution
system.cpu.dtb.walker.walksPending::12-13     69715000      0.00%    100.00% # Table walker pending requests distribution
system.cpu.dtb.walker.walksPending::14-15    193284500      0.00%    100.00% # Table walker pending requests distribution
system.cpu.dtb.walker.walksPending::16-17      7338500      0.00%    100.00% # Table walker pending requests distribution
system.cpu.dtb.walker.walksPending::18-19        20500      0.00%    100.00% # Table walker pending requests distribution
system.cpu.dtb.walker.walksPending::20-21        50500      0.00%    100.00% # Table walker pending requests distribution
system.cpu.dtb.walker.walksPending::total 5627137169704                       # Table walker pending requests distribution
system.cpu.dtb.walker.walkPageSizes::4K       1368133     96.86%     96.86% # Table walker page sizes translated
system.cpu.dtb.walker.walkPageSizes::2M         44344      3.14%    100.00% # Table walker page sizes translated
system.cpu.dtb.walker.walkPageSizes::total      1412477                       # Table walker page sizes translated
system.cpu.dtb.walker.walkRequestOrigin_Requested::Data      9799652                       # Table walker requests started/completed, data/inst
system.cpu.dtb.walker.walkRequestOrigin_Requested::Inst            0                       # Table walker requests started/completed, data/inst
system.cpu.dtb.walker.walkRequestOrigin_Requested::total      9799652                       # Table walker requests started/completed, data/inst
system.cpu.dtb.walker.walkRequestOrigin_Completed::Data      1412477                       # Table walker requests started/completed, data/inst
system.cpu.dtb.walker.walkRequestOrigin_Completed::Inst            0                       # Table walker requests started/completed, data/inst
system.cpu.dtb.walker.walkRequestOrigin_Completed::total      1412477                       # Table walker requests started/completed, data/inst
system.cpu.dtb.walker.walkRequestOrigin::total     11212129                       # Table walker requests started/completed, data/inst
system.cpu.dtb.inst_hits                            0                       # ITB inst hits
system.cpu.dtb.inst_misses                          0                       # ITB inst misses
system.cpu.dtb.read_hits                   1766734559                       # DTB read hits
system.cpu.dtb.read_misses                    8876317                       # DTB read misses
system.cpu.dtb.write_hits                   584507078                       # DTB write hits
system.cpu.dtb.write_misses                    923335                       # DTB write misses
system.cpu.dtb.flush_tlb                           13                       # Number of times complete TLB was flushed
system.cpu.dtb.flush_tlb_mva                        6                       # Number of times TLB was flushed by MVA
system.cpu.dtb.flush_tlb_mva_asid              114724                       # Number of times TLB was flushed by MVA & ASID
system.cpu.dtb.flush_tlb_asid                     702                       # Number of times TLB was flushed by ASID
system.cpu.dtb.flush_entries                    91701                       # Number of entries that have been flushed from TLB
system.cpu.dtb.align_faults                      1022                       # Number of TLB faults due to alignment restrictions
system.cpu.dtb.prefetch_faults                  28578                       # Number of TLB faults due to prefetch
system.cpu.dtb.domain_faults                        0                       # Number of TLB faults due to domain restrictions
system.cpu.dtb.perms_faults                    182573                       # Number of TLB faults due to permissions restrictions
system.cpu.dtb.read_accesses               1775610876                       # DTB read accesses
system.cpu.dtb.write_accesses               585430413                       # DTB write accesses
system.cpu.dtb.inst_accesses                        0                       # ITB inst accesses
system.cpu.dtb.hits                        2351241637                       # DTB hits
system.cpu.dtb.misses                         9799652                       # DTB misses
system.cpu.dtb.accesses                    2361041289                       # DTB accesses
system.cpu.istage2_mmu.stage2_tlb.walker.pwrStateResidencyTicks::UNDEFINED 81867122499000                       # Cumulative time (in ticks) in various power states
system.cpu.istage2_mmu.stage2_tlb.walker.walks            0                       # Table walker walks requested
system.cpu.istage2_mmu.stage2_tlb.walker.walkRequestOrigin_Requested::Data            0                       # Table walker requests started/completed, data/inst
system.cpu.istage2_mmu.stage2_tlb.walker.walkRequestOrigin_Requested::Inst            0                       # Table walker requests started/completed, data/inst
system.cpu.istage2_mmu.stage2_tlb.walker.walkRequestOrigin_Requested::total            0                       # Table walker requests started/completed, data/inst
system.cpu.istage2_mmu.stage2_tlb.walker.walkRequestOrigin_Completed::Data            0                       # Table walker requests started/completed, data/inst
system.cpu.istage2_mmu.stage2_tlb.walker.walkRequestOrigin_Completed::Inst            0                       # Table walker requests started/completed, data/inst
system.cpu.istage2_mmu.stage2_tlb.walker.walkRequestOrigin_Completed::total            0                       # Table walker requests started/completed, data/inst
system.cpu.istage2_mmu.stage2_tlb.walker.walkRequestOrigin::total            0                       # Table walker requests started/completed, data/inst
system.cpu.istage2_mmu.stage2_tlb.inst_hits            0                       # ITB inst hits
system.cpu.istage2_mmu.stage2_tlb.inst_misses            0                       # ITB inst misses
system.cpu.istage2_mmu.stage2_tlb.read_hits            0                       # DTB read hits
system.cpu.istage2_mmu.stage2_tlb.read_misses            0                       # DTB read misses
system.cpu.istage2_mmu.stage2_tlb.write_hits            0                       # DTB write hits
system.cpu.istage2_mmu.stage2_tlb.write_misses            0                       # DTB write misses
system.cpu.istage2_mmu.stage2_tlb.flush_tlb            0                       # Number of times complete TLB was flushed
system.cpu.istage2_mmu.stage2_tlb.flush_tlb_mva            0                       # Number of times TLB was flushed by MVA
system.cpu.istage2_mmu.stage2_tlb.flush_tlb_mva_asid            0                       # Number of times TLB was flushed by MVA & ASID
system.cpu.istage2_mmu.stage2_tlb.flush_tlb_asid            0                       # Number of times TLB was flushed by ASID
system.cpu.istage2_mmu.stage2_tlb.flush_entries            0                       # Number of entries that have been flushed from TLB
system.cpu.istage2_mmu.stage2_tlb.align_faults            0                       # Number of TLB faults due to alignment restrictions
system.cpu.istage2_mmu.stage2_tlb.prefetch_faults            0                       # Number of TLB faults due to prefetch
system.cpu.istage2_mmu.stage2_tlb.domain_faults            0                       # Number of TLB faults due to domain restrictions
system.cpu.istage2_mmu.stage2_tlb.perms_faults            0                       # Number of TLB faults due to permissions restrictions
system.cpu.istage2_mmu.stage2_tlb.read_accesses            0                       # DTB read accesses
system.cpu.istage2_mmu.stage2_tlb.write_accesses            0                       # DTB write accesses
system.cpu.istage2_mmu.stage2_tlb.inst_accesses            0                       # ITB inst accesses
system.cpu.istage2_mmu.stage2_tlb.hits              0                       # DTB hits
system.cpu.istage2_mmu.stage2_tlb.misses            0                       # DTB misses
system.cpu.istage2_mmu.stage2_tlb.accesses            0                       # DTB accesses
system.cpu.itb.walker.pwrStateResidencyTicks::UNDEFINED 81867122499000                       # Cumulative time (in ticks) in various power states
system.cpu.itb.walker.walks                    442300                       # Table walker walks requested
system.cpu.itb.walker.walksLong                442300                       # Table walker walks initiated with long descriptors
system.cpu.itb.walker.walksLongTerminationLevel::Level2         6265                       # Level at which table walker walks with long descriptors terminate
system.cpu.itb.walker.walksLongTerminationLevel::Level3       289452                       # Level at which table walker walks with long descriptors terminate
system.cpu.itb.walker.walksSquashedBefore        27687                       # Table walks squashed before starting
system.cpu.itb.walker.walkWaitTime::samples       414613                       # Table walker wait (enqueue to first request) latency
system.cpu.itb.walker.walkWaitTime::mean   710.147776                       # Table walker wait (enqueue to first request) latency
system.cpu.itb.walker.walkWaitTime::stdev  8080.663460                       # Table walker wait (enqueue to first request) latency
system.cpu.itb.walker.walkWaitTime::0-65535       412910     99.59%     99.59% # Table walker wait (enqueue to first request) latency
system.cpu.itb.walker.walkWaitTime::65536-131071         1424      0.34%     99.93% # Table walker wait (enqueue to first request) latency
system.cpu.itb.walker.walkWaitTime::131072-196607          180      0.04%     99.98% # Table walker wait (enqueue to first request) latency
system.cpu.itb.walker.walkWaitTime::196608-262143           42      0.01%     99.99% # Table walker wait (enqueue to first request) latency
system.cpu.itb.walker.walkWaitTime::262144-327679           38      0.01%    100.00% # Table walker wait (enqueue to first request) latency
system.cpu.itb.walker.walkWaitTime::327680-393215           16      0.00%    100.00% # Table walker wait (enqueue to first request) latency
system.cpu.itb.walker.walkWaitTime::393216-458751            1      0.00%    100.00% # Table walker wait (enqueue to first request) latency
system.cpu.itb.walker.walkWaitTime::524288-589823            1      0.00%    100.00% # Table walker wait (enqueue to first request) latency
system.cpu.itb.walker.walkWaitTime::589824-655359            1      0.00%    100.00% # Table walker wait (enqueue to first request) latency
system.cpu.itb.walker.walkWaitTime::total       414613                       # Table walker wait (enqueue to first request) latency
system.cpu.itb.walker.walkCompletionTime::samples       323404                       # Table walker service (enqueue to completion) latency
system.cpu.itb.walker.walkCompletionTime::mean 21643.607429                       # Table walker service (enqueue to completion) latency
system.cpu.itb.walker.walkCompletionTime::gmean  7996.481526                       # Table walker service (enqueue to completion) latency
system.cpu.itb.walker.walkCompletionTime::stdev 41052.609769                       # Table walker service (enqueue to completion) latency
system.cpu.itb.walker.walkCompletionTime::0-65535       277182     85.71%     85.71% # Table walker service (enqueue to completion) latency
system.cpu.itb.walker.walkCompletionTime::65536-131071        40001     12.37%     98.08% # Table walker service (enqueue to completion) latency
system.cpu.itb.walker.walkCompletionTime::131072-196607         3733      1.15%     99.23% # Table walker service (enqueue to completion) latency
system.cpu.itb.walker.walkCompletionTime::196608-262143         1214      0.38%     99.61% # Table walker service (enqueue to completion) latency
system.cpu.itb.walker.walkCompletionTime::262144-327679          688      0.21%     99.82% # Table walker service (enqueue to completion) latency
system.cpu.itb.walker.walkCompletionTime::327680-393215          367      0.11%     99.93% # Table walker service (enqueue to completion) latency
system.cpu.itb.walker.walkCompletionTime::393216-458751           79      0.02%     99.96% # Table walker service (enqueue to completion) latency
system.cpu.itb.walker.walkCompletionTime::458752-524287           34      0.01%     99.97% # Table walker service (enqueue to completion) latency
system.cpu.itb.walker.walkCompletionTime::524288-589823           10      0.00%     99.97% # Table walker service (enqueue to completion) latency
system.cpu.itb.walker.walkCompletionTime::589824-655359           95      0.03%    100.00% # Table walker service (enqueue to completion) latency
system.cpu.itb.walker.walkCompletionTime::655360-720895            1      0.00%    100.00% # Table walker service (enqueue to completion) latency
system.cpu.itb.walker.walkCompletionTime::total       323404                       # Table walker service (enqueue to completion) latency
system.cpu.itb.walker.walksPending::samples 1912009984664                       # Table walker pending requests distribution
system.cpu.itb.walker.walksPending::mean     0.950418                       # Table walker pending requests distribution
system.cpu.itb.walker.walksPending::stdev     0.217442                       # Table walker pending requests distribution
system.cpu.itb.walker.walksPending::0     94951434500      4.97%      4.97% # Table walker pending requests distribution
system.cpu.itb.walker.walksPending::1    1816908890664     95.03%     99.99% # Table walker pending requests distribution
system.cpu.itb.walker.walksPending::2       149204500      0.01%    100.00% # Table walker pending requests distribution
system.cpu.itb.walker.walksPending::3          442000      0.00%    100.00% # Table walker pending requests distribution
system.cpu.itb.walker.walksPending::4           10500      0.00%    100.00% # Table walker pending requests distribution
system.cpu.itb.walker.walksPending::5            2500      0.00%    100.00% # Table walker pending requests distribution
system.cpu.itb.walker.walksPending::total 1912009984664                       # Table walker pending requests distribution
system.cpu.itb.walker.walkPageSizes::4K        289452     97.88%     97.88% # Table walker page sizes translated
system.cpu.itb.walker.walkPageSizes::2M          6265      2.12%    100.00% # Table walker page sizes translated
system.cpu.itb.walker.walkPageSizes::total       295717                       # Table walker page sizes translated
system.cpu.itb.walker.walkRequestOrigin_Requested::Data            0                       # Table walker requests started/completed, data/inst
system.cpu.itb.walker.walkRequestOrigin_Requested::Inst       442300                       # Table walker requests started/completed, data/inst
system.cpu.itb.walker.walkRequestOrigin_Requested::total       442300                       # Table walker requests started/completed, data/inst
system.cpu.itb.walker.walkRequestOrigin_Completed::Data            0                       # Table walker requests started/completed, data/inst
system.cpu.itb.walker.walkRequestOrigin_Completed::Inst       295717                       # Table walker requests started/completed, data/inst
system.cpu.itb.walker.walkRequestOrigin_Completed::total       295717                       # Table walker requests started/completed, data/inst
system.cpu.itb.walker.walkRequestOrigin::total       738017                       # Table walker requests started/completed, data/inst
system.cpu.itb.inst_hits                   2746289620                       # ITB inst hits
system.cpu.itb.inst_misses                     442300                       # ITB inst misses
system.cpu.itb.read_hits                            0                       # DTB read hits
system.cpu.itb.read_misses                          0                       # DTB read misses
system.cpu.itb.write_hits                           0                       # DTB write hits
system.cpu.itb.write_misses                         0                       # DTB write misses
system.cpu.itb.flush_tlb                           13                       # Number of times complete TLB was flushed
system.cpu.itb.flush_tlb_mva                        6                       # Number of times TLB was flushed by MVA
system.cpu.itb.flush_tlb_mva_asid              114724                       # Number of times TLB was flushed by MVA & ASID
system.cpu.itb.flush_tlb_asid                     702                       # Number of times TLB was flushed by ASID
system.cpu.itb.flush_entries                    41413                       # Number of entries that have been flushed from TLB
system.cpu.itb.align_faults                         0                       # Number of TLB faults due to alignment restrictions
system.cpu.itb.prefetch_faults                      0                       # Number of TLB faults due to prefetch
system.cpu.itb.domain_faults                        0                       # Number of TLB faults due to domain restrictions
system.cpu.itb.perms_faults                    689341                       # Number of TLB faults due to permissions restrictions
system.cpu.itb.read_accesses                        0                       # DTB read accesses
system.cpu.itb.write_accesses                       0                       # DTB write accesses
system.cpu.itb.inst_accesses               2746731920                       # ITB inst accesses
system.cpu.itb.hits                        2746289620                       # DTB hits
system.cpu.itb.misses                          442300                       # DTB misses
system.cpu.itb.accesses                    2746731920                       # DTB accesses
system.cpu.numPwrStateTransitions               41352                       # Number of power state transitions
system.cpu.pwrStateClkGateDist::samples         20676                       # Distribution of time spent in the clock gated state
system.cpu.pwrStateClkGateDist::mean     3684122114.687028                       # Distribution of time spent in the clock gated state
system.cpu.pwrStateClkGateDist::stdev    56468945768.122734                       # Distribution of time spent in the clock gated state
system.cpu.pwrStateClkGateDist::underflows        20411     98.72%     98.72% # Distribution of time spent in the clock gated state
system.cpu.pwrStateClkGateDist::1000-5e+10          151      0.73%     99.45% # Distribution of time spent in the clock gated state
system.cpu.pwrStateClkGateDist::5e+10-1e+11           14      0.07%     99.52% # Distribution of time spent in the clock gated state
system.cpu.pwrStateClkGateDist::1e+11-1.5e+11            7      0.03%     99.55% # Distribution of time spent in the clock gated state
system.cpu.pwrStateClkGateDist::1.5e+11-2e+11            5      0.02%     99.57% # Distribution of time spent in the clock gated state
system.cpu.pwrStateClkGateDist::2e+11-2.5e+11            1      0.00%     99.58% # Distribution of time spent in the clock gated state
system.cpu.pwrStateClkGateDist::2.5e+11-3e+11            3      0.01%     99.59% # Distribution of time spent in the clock gated state
system.cpu.pwrStateClkGateDist::3.5e+11-4e+11            7      0.03%     99.63% # Distribution of time spent in the clock gated state
system.cpu.pwrStateClkGateDist::4e+11-4.5e+11            2      0.01%     99.64% # Distribution of time spent in the clock gated state
system.cpu.pwrStateClkGateDist::4.5e+11-5e+11            2      0.01%     99.65% # Distribution of time spent in the clock gated state
system.cpu.pwrStateClkGateDist::5e+11-5.5e+11            3      0.01%     99.66% # Distribution of time spent in the clock gated state
system.cpu.pwrStateClkGateDist::6e+11-6.5e+11            7      0.03%     99.70% # Distribution of time spent in the clock gated state
system.cpu.pwrStateClkGateDist::7.5e+11-8e+11            1      0.00%     99.70% # Distribution of time spent in the clock gated state
system.cpu.pwrStateClkGateDist::8.5e+11-9e+11            6      0.03%     99.73% # Distribution of time spent in the clock gated state
system.cpu.pwrStateClkGateDist::9e+11-9.5e+11            7      0.03%     99.76% # Distribution of time spent in the clock gated state
system.cpu.pwrStateClkGateDist::9.5e+11-1e+12           49      0.24%    100.00% # Distribution of time spent in the clock gated state
system.cpu.pwrStateClkGateDist::min_value          501                       # Distribution of time spent in the clock gated state
system.cpu.pwrStateClkGateDist::max_value 999972120344                       # Distribution of time spent in the clock gated state
system.cpu.pwrStateClkGateDist::total           20676                       # Distribution of time spent in the clock gated state
system.cpu.pwrStateResidencyTicks::ON    5694213655731                       # Cumulative time (in ticks) in various power states
system.cpu.pwrStateResidencyTicks::CLK_GATED 76172908843269                       # Cumulative time (in ticks) in various power states
system.cpu.numCycles                      11388428742                       # number of cpu cycles simulated
system.cpu.numWorkItemsStarted                      0                       # number of work items this cpu started
system.cpu.numWorkItemsCompleted                    0                       # number of work items this cpu completed
system.cpu.fetch.icacheStallCycles         3422325573                       # Number of cycles fetch is stalled on an Icache miss
system.cpu.fetch.Insts                     8344023142                       # Number of instructions fetch has processed
system.cpu.fetch.Branches                  1366040646                       # Number of branches that fetch encountered
system.cpu.fetch.predictedBranches          722632030                       # Number of branches that fetch has predicted taken
system.cpu.fetch.Cycles                    6845437492                       # Number of cycles fetch has run and was not squashing or blocked
system.cpu.fetch.SquashCycles               157918488                       # Number of cycles fetch has spent squashing
system.cpu.fetch.TlbCycles                    6775231                       # Number of cycles fetch has spent waiting for tlb
system.cpu.fetch.MiscStallCycles             21891371                       # Number of cycles fetch has spent waiting on interrupts, or bad addresses, or out of MSHRs
system.cpu.fetch.PendingTrapStallCycles      16169458                       # Number of stall cycles due to pending traps
system.cpu.fetch.PendingQuiesceStallCycles      3798975                       # Number of stall cycles due to pending quiesce instructions
system.cpu.fetch.IcacheWaitRetryStallCycles     36992812                       # Number of stall cycles due to full MSHR
system.cpu.fetch.CacheLines                2745538328                       # Number of cache lines fetched
system.cpu.fetch.IcacheSquashes              37086163                       # Number of outstanding Icache misses that were squashed
system.cpu.fetch.ItlbSquashes                   76271                       # Number of outstanding ITLB misses that were squashed
system.cpu.fetch.rateDist::samples        10432350156                       # Number of instructions fetched each cycle (Total)
system.cpu.fetch.rateDist::mean              0.850358                       # Number of instructions fetched each cycle (Total)
system.cpu.fetch.rateDist::stdev             1.172602                       # Number of instructions fetched each cycle (Total)
system.cpu.fetch.rateDist::underflows               0      0.00%      0.00% # Number of instructions fetched each cycle (Total)
system.cpu.fetch.rateDist::0               6084365883     58.32%     58.32% # Number of instructions fetched each cycle (Total)
system.cpu.fetch.rateDist::1               1809948542     17.35%     75.67% # Number of instructions fetched each cycle (Total)
system.cpu.fetch.rateDist::2                552823962      5.30%     80.97% # Number of instructions fetched each cycle (Total)
system.cpu.fetch.rateDist::3               1985211769     19.03%    100.00% # Number of instructions fetched each cycle (Total)
system.cpu.fetch.rateDist::overflows                0      0.00%    100.00% # Number of instructions fetched each cycle (Total)
system.cpu.fetch.rateDist::min_value                0                       # Number of instructions fetched each cycle (Total)
system.cpu.fetch.rateDist::max_value                3                       # Number of instructions fetched each cycle (Total)
system.cpu.fetch.rateDist::total          10432350156                       # Number of instructions fetched each cycle (Total)
system.cpu.fetch.branchRate                  0.119950                       # Number of branch fetches per cycle
system.cpu.fetch.rate                        0.732676                       # Number of inst fetches per cycle
system.cpu.decode.IdleCycles               2690718537                       # Number of cycles decode is idle
system.cpu.decode.BlockedCycles            3997525539                       # Number of cycles decode is blocked
system.cpu.decode.RunCycles                3240308146                       # Number of cycles decode is running
system.cpu.decode.UnblockCycles             434471625                       # Number of cycles decode is unblocking
system.cpu.decode.SquashCycles               69326309                       # Number of cycles decode is squashing
system.cpu.decode.BranchResolved            590344249                       # Number of times decode resolved a branch
system.cpu.decode.BranchMispred               9766078                       # Number of times decode detected a branch misprediction
[...]
system.ruby.Directory_Controller.I.GETS::total      7920987                      
system.ruby.Directory_Controller.I.Memory_Ack |    16629647    100.00%    100.00% |           0      0.00%    100.00%
system.ruby.Directory_Controller.I.Memory_Ack::total     16629647                      
system.ruby.Directory_Controller.I.DMA_READ |       10464    100.00%    100.00% |           0      0.00%    100.00%
system.ruby.Directory_Controller.I.DMA_READ::total        10464                      
system.ruby.Directory_Controller.I.DMA_WRITE |      452009    100.00%    100.00% |           0      0.00%    100.00%
system.ruby.Directory_Controller.I.DMA_WRITE::total       452009                      
system.ruby.Directory_Controller.S.GETX  |     6992328    100.00%    100.00% |           0      0.00%    100.00%
system.ruby.Directory_Controller.S.GETX::total      6992328                      
system.ruby.Directory_Controller.S.GETS  |    17651739    100.00%    100.00% |           0      0.00%    100.00%
system.ruby.Directory_Controller.S.GETS::total     17651739                      
system.ruby.Directory_Controller.S.DMA_READ |        1339    100.00%    100.00% |           0      0.00%    100.00%
system.ruby.Directory_Controller.S.DMA_READ::total         1339                      
system.ruby.Directory_Controller.S.DMA_WRITE |       12833    100.00%    100.00% |           0      0.00%    100.00%
system.ruby.Directory_Controller.S.DMA_WRITE::total        12833                      
system.ruby.Directory_Controller.M.PUTX  |    16615829    100.00%    100.00% |           0      0.00%    100.00%
system.ruby.Directory_Controller.M.PUTX::total     16615829                      
system.ruby.Directory_Controller.M.DMA_READ |        4382    100.00%    100.00% |           0      0.00%    100.00%
system.ruby.Directory_Controller.M.DMA_READ::total         4382                      
system.ruby.Directory_Controller.M.DMA_WRITE |         670    100.00%    100.00% |           0      0.00%    100.00%
system.ruby.Directory_Controller.M.DMA_WRITE::total          670                      
system.ruby.Directory_Controller.IS.GETX |          33    100.00%    100.00% |           0      0.00%    100.00%
system.ruby.Directory_Controller.IS.GETX::total           33                      
system.ruby.Directory_Controller.IS.Unblock |     7920977    100.00%    100.00% |           9      0.00%    100.00%
system.ruby.Directory_Controller.IS.Unblock::total      7920986                      
system.ruby.Directory_Controller.IS.Memory_Data |     7920978    100.00%    100.00% |           9      0.00%    100.00%
system.ruby.Directory_Controller.IS.Memory_Data::total      7920987                      
system.ruby.Directory_Controller.IS.Memory_Ack |        1416    100.00%    100.00% |           0      0.00%    100.00%
system.ruby.Directory_Controller.IS.Memory_Ack::total         1416                      
system.ruby.Directory_Controller.SS.GETX |           2    100.00%    100.00% |           0      0.00%    100.00%
system.ruby.Directory_Controller.SS.GETX::total            2                      
system.ruby.Directory_Controller.SS.Last_Unblock |    17651739    100.00%    100.00% |           0      0.00%    100.00%
system.ruby.Directory_Controller.SS.Last_Unblock::total     17651739                      
system.ruby.Directory_Controller.SS.Memory_Data |    17651739    100.00%    100.00% |           0      0.00%    100.00%
system.ruby.Directory_Controller.SS.Memory_Data::total     17651739                      
system.ruby.Directory_Controller.MM.Exclusive_Unblock |    16617873    100.00%    100.00% |           0      0.00%    100.00%
system.ruby.Directory_Controller.MM.Exclusive_Unblock::total     16617873                      
system.ruby.Directory_Controller.MM.Memory_Data |    16617873    100.00%    100.00% |           0      0.00%    100.00%
system.ruby.Directory_Controller.MM.Memory_Data::total     16617873                      
system.ruby.Directory_Controller.MM.Memory_Ack |        2501    100.00%    100.00% |           0      0.00%    100.00%
system.ruby.Directory_Controller.MM.Memory_Ack::total         2501                      
system.ruby.Directory_Controller.MI.GETX |           8    100.00%    100.00% |           0      0.00%    100.00%
system.ruby.Directory_Controller.MI.GETX::total            8                      
system.ruby.Directory_Controller.MI.Dirty_Writeback |    16615829    100.00%    100.00% |           0      0.00%    100.00%
system.ruby.Directory_Controller.MI.Dirty_Writeback::total     16615829                      
system.ruby.Directory_Controller.MI.DMA_READ |           2    100.00%    100.00% |           0      0.00%    100.00%
system.ruby.Directory_Controller.MI.DMA_READ::total            2                      
system.ruby.Directory_Controller.XI_M.Memory_Data |       10464    100.00%    100.00% |           0      0.00%    100.00%
system.ruby.Directory_Controller.XI_M.Memory_Data::total        10464                      
system.ruby.Directory_Controller.XI_M.Memory_Ack |           2    100.00%    100.00% |           0      0.00%    100.00%
system.ruby.Directory_Controller.XI_M.Memory_Ack::total            2                      
system.ruby.Directory_Controller.XI_U.Exclusive_Unblock |      465512    100.00%    100.00% |           0      0.00%    100.00%
system.ruby.Directory_Controller.XI_U.Exclusive_Unblock::total       465512                      
system.ruby.Directory_Controller.XI_U.Memory_Ack |      447775    100.00%    100.00% |           0      0.00%    100.00%
system.ruby.Directory_Controller.XI_U.Memory_Ack::total       447775                      
system.ruby.Directory_Controller.OI_D.Data |         670    100.00%    100.00% |           0      0.00%    100.00%
system.ruby.Directory_Controller.OI_D.Data::total          670                      
system.ruby.Directory_Controller.MD.DMA_ACK |        4382    100.00%    100.00% |           0      0.00%    100.00%
system.ruby.Directory_Controller.MD.DMA_ACK::total         4382                      
system.ruby.DMA_Controller.ReadRequest   |           0      0.00%      0.00% |      385361    100.00%    100.00% |           0      0.00%    100.00%
system.ruby.DMA_Controller.ReadRequest::total       385361                      
system.ruby.DMA_Controller.WriteRequest  |           0      0.00%      0.00% |    14313304    100.00%    100.00% |           0      0.00%    100.00%
system.ruby.DMA_Controller.WriteRequest::total     14313304                      
system.ruby.DMA_Controller.Data          |           0      0.00%      0.00% |       16185    100.00%    100.00% |           0      0.00%    100.00%
system.ruby.DMA_Controller.Data::total          16185                      
system.ruby.DMA_Controller.DMA_Ack       |           0      0.00%      0.00% |      465512    100.00%    100.00% |           0      0.00%    100.00%
system.ruby.DMA_Controller.DMA_Ack::total       465512                      
system.ruby.DMA_Controller.Inv_Ack       |           0      0.00%      0.00% |       12833    100.00%    100.00% |           0      0.00%    100.00%
system.ruby.DMA_Controller.Inv_Ack::total        12833                      
system.ruby.DMA_Controller.All_Acks      |           0      0.00%      0.00% |      465512    100.00%    100.00% |           0      0.00%    100.00%
system.ruby.DMA_Controller.All_Acks::total       465512                      
system.ruby.DMA_Controller.READY.ReadRequest |           0      0.00%      0.00% |       16185    100.00%    100.00% |           0      0.00%    100.00%
system.ruby.DMA_Controller.READY.ReadRequest::total        16185                      
system.ruby.DMA_Controller.READY.WriteRequest |           0      0.00%      0.00% |      465512    100.00%    100.00% |           0      0.00%    100.00%
system.ruby.DMA_Controller.READY.WriteRequest::total       465512                      
system.ruby.DMA_Controller.BUSY_RD.ReadRequest |           0      0.00%      0.00% |      369176    100.00%    100.00% |           0      0.00%    100.00%
system.ruby.DMA_Controller.BUSY_RD.ReadRequest::total       369176                      
system.ruby.DMA_Controller.BUSY_RD.Data  |           0      0.00%      0.00% |       16185    100.00%    100.00% |           0      0.00%    100.00%
system.ruby.DMA_Controller.BUSY_RD.Data::total        16185                      
system.ruby.DMA_Controller.BUSY_WR.WriteRequest |           0      0.00%      0.00% |    13847792    100.00%    100.00% |           0      0.00%    100.00%
system.ruby.DMA_Controller.BUSY_WR.WriteRequest::total     13847792                      
system.ruby.DMA_Controller.BUSY_WR.DMA_Ack |           0      0.00%      0.00% |      465512    100.00%    100.00% |           0      0.00%    100.00%
system.ruby.DMA_Controller.BUSY_WR.DMA_Ack::total       465512                      
system.ruby.DMA_Controller.BUSY_WR.Inv_Ack |           0      0.00%      0.00% |       12833    100.00%    100.00% |           0      0.00%    100.00%
system.ruby.DMA_Controller.BUSY_WR.Inv_Ack::total        12833                      
system.ruby.DMA_Controller.BUSY_WR.All_Acks |           0      0.00%      0.00% |      465512    100.00%    100.00% |           0      0.00%    100.00%
system.ruby.DMA_Controller.BUSY_WR.All_Acks::total       465512                      
system.ruby.L1Cache_Controller.Load        1599019523      0.00%      0.00%
system.ruby.L1Cache_Controller.Ifetch    18446744072160360448      0.00%      0.00%
system.ruby.L1Cache_Controller.Store        576323369      0.00%      0.00%
system.ruby.L1Cache_Controller.L1_Replacement     96687537      0.00%      0.00%
system.ruby.L1Cache_Controller.Fwd_GETX           341      0.00%      0.00%
system.ruby.L1Cache_Controller.Fwd_DMA           1840      0.00%      0.00%
system.ruby.L1Cache_Controller.Inv                 37      0.00%      0.00%
system.ruby.L1Cache_Controller.Data          57889107      0.00%      0.00%
system.ruby.L1Cache_Controller.Exclusive_Data     42975359      0.00%      0.00%
system.ruby.L1Cache_Controller.Writeback_Ack     31380083      0.00%      0.00%
system.ruby.L1Cache_Controller.Writeback_Ack_Data     64645046      0.00%      0.00%
system.ruby.L1Cache_Controller.All_acks      30537336      0.00%      0.00%
system.ruby.L1Cache_Controller.Use_Timeout     42975359      0.00%      0.00%
system.ruby.L1Cache_Controller.I.Load        30944018      0.00%      0.00%
system.ruby.L1Cache_Controller.I.Ifetch      39383113      0.00%      0.00%
system.ruby.L1Cache_Controller.I.Store       25699653      0.00%      0.00%
system.ruby.L1Cache_Controller.I.L1_Replacement          355      0.00%      0.00%
system.ruby.L1Cache_Controller.S.Load       390861177      0.00%      0.00%
system.ruby.L1Cache_Controller.S.Ifetch  18446744072120383488      0.00%      0.00%
system.ruby.L1Cache_Controller.S.Store        4837683      0.00%      0.00%
system.ruby.L1Cache_Controller.S.L1_Replacement     53050814      0.00%      0.00%
system.ruby.L1Cache_Controller.S.Inv               37      0.00%      0.00%
system.ruby.L1Cache_Controller.M.Load       125336186      0.00%      0.00%
system.ruby.L1Cache_Controller.M.Ifetch           207      0.00%      0.00%
system.ruby.L1Cache_Controller.M.Store        1109098      0.00%      0.00%
system.ruby.L1Cache_Controller.M.L1_Replacement      9983225      0.00%      0.00%
system.ruby.L1Cache_Controller.M.Fwd_GETX           10      0.00%      0.00%
system.ruby.L1Cache_Controller.M_W.Load      21020710      0.00%      0.00%
system.ruby.L1Cache_Controller.M_W.Ifetch          161      0.00%      0.00%
system.ruby.L1Cache_Controller.M_W.Store      1345642      0.00%      0.00%
system.ruby.L1Cache_Controller.M_W.L1_Replacement       119232      0.00%      0.00%
system.ruby.L1Cache_Controller.M_W.Use_Timeout     11092381      0.00%      0.00%
system.ruby.L1Cache_Controller.MM.Load     1026229194      0.00%      0.00%
system.ruby.L1Cache_Controller.MM.Store     500612061      0.00%      0.00%
system.ruby.L1Cache_Controller.MM.L1_Replacement     32991091      0.00%      0.00%
system.ruby.L1Cache_Controller.MM.Fwd_GETX          331      0.00%      0.00%
system.ruby.L1Cache_Controller.MM.Fwd_DMA         1840      0.00%      0.00%
system.ruby.L1Cache_Controller.MM_W.Load      4059015      0.00%      0.00%
system.ruby.L1Cache_Controller.MM_W.Store     42669934      0.00%      0.00%
system.ruby.L1Cache_Controller.MM_W.L1_Replacement       215730      0.00%      0.00%
system.ruby.L1Cache_Controller.MM_W.Use_Timeout     31882978      0.00%      0.00%
system.ruby.L1Cache_Controller.IM.L1_Replacement        68554      0.00%      0.00%
system.ruby.L1Cache_Controller.IM.Exclusive_Data     25699653      0.00%      0.00%
system.ruby.L1Cache_Controller.SM.L1_Replacement       101946      0.00%      0.00%
system.ruby.L1Cache_Controller.SM.Exclusive_Data      4837683      0.00%      0.00%
system.ruby.L1Cache_Controller.OM.L1_Replacement         1617      0.00%      0.00%
system.ruby.L1Cache_Controller.OM.All_acks     30537336      0.00%      0.00%
system.ruby.L1Cache_Controller.IS.L1_Replacement       154973      0.00%      0.00%
system.ruby.L1Cache_Controller.IS.Data       57889107      0.00%      0.00%
system.ruby.L1Cache_Controller.IS.Exclusive_Data     12438023      0.00%      0.00%
system.ruby.L1Cache_Controller.SI.Load         485222      0.00%      0.00%
system.ruby.L1Cache_Controller.SI.Ifetch       592422      0.00%      0.00%
system.ruby.L1Cache_Controller.SI.Store         13238      0.00%      0.00%
system.ruby.L1Cache_Controller.SI.Writeback_Ack     31380083      0.00%      0.00%
system.ruby.L1Cache_Controller.SI.Writeback_Ack_Data     21670730      0.00%      0.00%
system.ruby.L1Cache_Controller.MI.Load          84001      0.00%      0.00%
system.ruby.L1Cache_Controller.MI.Ifetch           75      0.00%      0.00%
system.ruby.L1Cache_Controller.MI.Store         36060      0.00%      0.00%
system.ruby.L1Cache_Controller.MI.Writeback_Ack_Data     42974316      0.00%      0.00%
system.ruby.L2Cache_Controller.L1_GETS       70329642      0.00%      0.00%
system.ruby.L2Cache_Controller.L1_GETX       30546278      0.00%      0.00%
system.ruby.L2Cache_Controller.L1_PUTX       42974316      0.00%      0.00%
system.ruby.L2Cache_Controller.L1_PUTS_only     53050814      0.00%      0.00%
system.ruby.L2Cache_Controller.L1_PUTS             19      0.00%      0.00%
system.ruby.L2Cache_Controller.Fwd_GETX           670      0.00%      0.00%
system.ruby.L2Cache_Controller.Fwd_DMA           4484      0.00%      0.00%
system.ruby.L2Cache_Controller.Inv              12833      0.00%      0.00%
system.ruby.L2Cache_Controller.IntAck              37      0.00%      0.00%
system.ruby.L2Cache_Controller.All_Acks      16617910      0.00%      0.00%
system.ruby.L2Cache_Controller.Data          42190599      0.00%      0.00%
system.ruby.L2Cache_Controller.Data_Exclusive          341      0.00%      0.00%
system.ruby.L2Cache_Controller.L1_WBCLEANDATA     21670730      0.00%      0.00%
system.ruby.L2Cache_Controller.L1_WBDIRTYDATA     42974316      0.00%      0.00%
system.ruby.L2Cache_Controller.Writeback_Ack     16615829      0.00%      0.00%
system.ruby.L2Cache_Controller.Unblock       89269190      0.00%      0.00%
system.ruby.L2Cache_Controller.Exclusive_Unblock     42975359      0.00%      0.00%
system.ruby.L2Cache_Controller.DmaAck            1840      0.00%      0.00%
system.ruby.L2Cache_Controller.L2_Replacement     38055680      0.00%      0.00%
system.ruby.L2Cache_Controller.NP.L1_GETS     25572647      0.00%      0.00%
system.ruby.L2Cache_Controller.NP.L1_GETX     11717467      0.00%      0.00%
system.ruby.L2Cache_Controller.NP.Inv           12762      0.00%      0.00%
system.ruby.L2Cache_Controller.I.L1_GETS           80      0.00%      0.00%
system.ruby.L2Cache_Controller.ILS.L1_GETX      4669889      0.00%      0.00%
system.ruby.L2Cache_Controller.ILS.L1_PUTS_only     21670730      0.00%      0.00%
system.ruby.L2Cache_Controller.ILS.Inv             36      0.00%      0.00%
system.ruby.L2Cache_Controller.ILX.L1_PUTX     42974316      0.00%      0.00%
system.ruby.L2Cache_Controller.ILX.Fwd_GETX          341      0.00%      0.00%
system.ruby.L2Cache_Controller.ILX.Fwd_DMA         1840      0.00%      0.00%
system.ruby.L2Cache_Controller.S.L1_GETS     32316381      0.00%      0.00%
system.ruby.L2Cache_Controller.S.L1_GETX        62723      0.00%      0.00%
system.ruby.L2Cache_Controller.S.Inv               34      0.00%      0.00%
system.ruby.L2Cache_Controller.S.L2_Replacement     20670500      0.00%      0.00%
system.ruby.L2Cache_Controller.SLS.L1_GETX       167794      0.00%      0.00%
system.ruby.L2Cache_Controller.SLS.L1_PUTS_only     31380084      0.00%      0.00%
system.ruby.L2Cache_Controller.SLS.Inv              1      0.00%      0.00%
system.ruby.L2Cache_Controller.SLS.L2_Replacement       768303      0.00%      0.00%
system.ruby.L2Cache_Controller.M.L1_GETS     12438023      0.00%      0.00%
system.ruby.L2Cache_Controller.M.L1_GETX     13919463      0.00%      0.00%
system.ruby.L2Cache_Controller.M.Fwd_GETX          329      0.00%      0.00%
system.ruby.L2Cache_Controller.M.Fwd_DMA         2542      0.00%      0.00%
system.ruby.L2Cache_Controller.M.L2_Replacement     16615829      0.00%      0.00%
system.ruby.L2Cache_Controller.IFGX.Data_Exclusive          341      0.00%      0.00%
system.ruby.L2Cache_Controller.IW.L1_GETS          103      0.00%      0.00%
system.ruby.L2Cache_Controller.IW.L1_GETX            6      0.00%      0.00%
system.ruby.L2Cache_Controller.IW.L1_WBCLEANDATA     21670730      0.00%      0.00%
system.ruby.L2Cache_Controller.SW.L1_GETS         1214      0.00%      0.00%
system.ruby.L2Cache_Controller.SW.L1_GETX           20      0.00%      0.00%
system.ruby.L2Cache_Controller.SW.Unblock     31380083      0.00%      0.00%
system.ruby.L2Cache_Controller.SW.L2_Replacement         1048      0.00%      0.00%
system.ruby.L2Cache_Controller.ILXW.L1_GETS          133      0.00%      0.00%
system.ruby.L2Cache_Controller.ILXW.L1_GETX         2276      0.00%      0.00%
system.ruby.L2Cache_Controller.ILXW.Fwd_DMA          102      0.00%      0.00%
system.ruby.L2Cache_Controller.ILXW.L1_WBDIRTYDATA     42974316      0.00%      0.00%
system.ruby.L2Cache_Controller.IGS.L1_GETX          173      0.00%      0.00%
system.ruby.L2Cache_Controller.IGS.Data      25572726      0.00%      0.00%
system.ruby.L2Cache_Controller.IGS.Unblock     25572726      0.00%      0.00%
system.ruby.L2Cache_Controller.IGM.Data      11780190      0.00%      0.00%
system.ruby.L2Cache_Controller.IGMLS.Data      4837683      0.00%      0.00%
system.ruby.L2Cache_Controller.IGMO.All_Acks     16617873      0.00%      0.00%
system.ruby.L2Cache_Controller.IGMO.Exclusive_Unblock     16617873      0.00%      0.00%
system.ruby.L2Cache_Controller.II.IntAck           37      0.00%      0.00%
system.ruby.L2Cache_Controller.II.All_Acks           37      0.00%      0.00%
system.ruby.L2Cache_Controller.MM.Exclusive_Unblock     13919463      0.00%      0.00%
system.ruby.L2Cache_Controller.SS.L1_GETX          188      0.00%      0.00%
system.ruby.L2Cache_Controller.SS.L1_PUTS           19      0.00%      0.00%
system.ruby.L2Cache_Controller.SS.Unblock     32316381      0.00%      0.00%
system.ruby.L2Cache_Controller.OO.Exclusive_Unblock     12438023      0.00%      0.00%
system.ruby.L2Cache_Controller.MI.L1_GETS         1061      0.00%      0.00%
system.ruby.L2Cache_Controller.MI.L1_GETX         6279      0.00%      0.00%
system.ruby.L2Cache_Controller.MI.Writeback_Ack     16615829      0.00%      0.00%
system.ruby.L2Cache_Controller.ILXD.DmaAck         1840      0.00%      0.00%

---------- End Simulation Statistics   ----------