
---------- Begin Simulation Statistics ----------
sim_seconds                                133.365592                       # Number of seconds simulated
sim_ticks                                133365592126500                       # Number of ticks simulated
final_tick                               133365592126500                       # Number of ticks from beginning of simulation (restored from checkpoints and never reset)
sim_freq                                 1000000000000                       # Frequency of simulated ticks
host_inst_rate                                 157454                       # Simulator instruction rate (inst/s)
host_op_rate                                   167740                       # Simulator op (including micro ops) rate (op/s)
host_tick_rate                             3006960060                       # Simulator tick rate (ticks/s)
host_mem_usage                                2683728                       # Number of bytes of host memory used
host_seconds                                 44352.30                       # Real time elapsed on the host
sim_insts                                  6983445386                       # Number of instructions simulated
sim_ops                                    7439632735                       # Number of ops (including micro ops) simulated
system.voltage_domain.voltage                       1                       # Voltage in Volts
system.clk_domain.clock                          1000                       # Clock period in ticks
system.bootmem.pwrStateResidencyTicks::UNDEFINED 133365592126500                       # Cumulative time (in ticks) in various power states
system.bootmem.bytes_read::ruby.network.ext_links3.ext_node          576                       # Number of bytes read from this memory
system.bootmem.bytes_read::total                  576                       # Number of bytes read from this memory
system.bootmem.num_reads::ruby.network.ext_links3.ext_node            9                       # Number of read requests responded to by this memory
system.bootmem.num_reads::total                     9                       # Number of read requests responded to by this memory
system.bootmem.bw_read::ruby.network.ext_links3.ext_node            4                       # Total read bandwidth from this memory (bytes/s)
system.bootmem.bw_read::total                       4                       # Total read bandwidth from this memory (bytes/s)
system.bootmem.bw_total::ruby.network.ext_links3.ext_node            4                       # Total bandwidth to/from this memory (bytes/s)
system.bootmem.bw_total::total                      4                       # Total bandwidth to/from this memory (bytes/s)
system.mem_ctrls.pwrStateResidencyTicks::UNDEFINED 133365592126500                       # Cumulative time (in ticks) in various power states
system.mem_ctrls.bytes_read::ruby.dir_cntrl0   2696744640                       # Number of bytes read from this memory
system.mem_ctrls.bytes_read::total         2696744640                       # Number of bytes read from this memory
system.mem_ctrls.bytes_written::ruby.dir_cntrl0   1093019712                       # Number of bytes written to this memory
system.mem_ctrls.bytes_written::total      1093019712                       # Number of bytes written to this memory
system.mem_ctrls.num_reads::ruby.dir_cntrl0     42136635                       # Number of read requests responded to by this memory
system.mem_ctrls.num_reads::total            42136635                       # Number of read requests responded to by this memory
system.mem_ctrls.num_writes::ruby.dir_cntrl0     17078433                       # Number of write requests responded to by this memory
system.mem_ctrls.num_writes::total           17078433                       # Number of write requests responded to by this memory
system.mem_ctrls.bw_read::ruby.dir_cntrl0     20220693                       # Total read bandwidth from this memory (bytes/s)
system.mem_ctrls.bw_read::total              20220693                       # Total read bandwidth from this memory (bytes/s)
system.mem_ctrls.bw_write::ruby.dir_cntrl0      8195665                       # Write bandwidth from this memory (bytes/s)
system.mem_ctrls.bw_write::total              8195665                       # Write bandwidth from this memory (bytes/s)
system.mem_ctrls.bw_total::ruby.dir_cntrl0     28416358                       # Total bandwidth to/from this memory (bytes/s)
system.mem_ctrls.bw_total::total             28416358                       # Total bandwidth to/from this memory (bytes/s)
system.mem_ctrls.readReqs                    42136635                       # Number of read requests accepted
system.mem_ctrls.writeReqs                   17078433                       # Number of write requests accepted
system.mem_ctrls.readBursts                  42136635                       # Number of DRAM read bursts, including those serviced by the write queue
system.mem_ctrls.writeBursts                 17078433                       # Number of DRAM write bursts, including those merged in the write queue
system.mem_ctrls.bytesReadDRAM             2637091072                       # Total number of bytes read from DRAM
system.mem_ctrls.bytesReadWrQ                59653568                       # Total number of bytes read from write queue
system.mem_ctrls.bytesWritten              1092961408                       # Total number of bytes written to DRAM
system.mem_ctrls.bytesReadSys              2696744640                       # Total read bytes from the system interface side
system.mem_ctrls.bytesWrittenSys           1093019712                       # Total written bytes from the system interface side
system.mem_ctrls.servicedByWrQ                 932087                       # Number of DRAM read bursts serviced by the write queue
system.mem_ctrls.mergedWrBursts                   896                       # Number of DRAM write bursts merged with an existing one
system.mem_ctrls.neitherReadNorWriteReqs            0                       # Number of requests that are neither read nor write
system.mem_ctrls.perBankRdBursts::0           2957938                       # Per bank write bursts
system.mem_ctrls.perBankRdBursts::1           2387195                       # Per bank write bursts
system.mem_ctrls.perBankRdBursts::2           2700649                       # Per bank write bursts
system.mem_ctrls.perBankRdBursts::3           2597089                       # Per bank write bursts
system.mem_ctrls.perBankRdBursts::4           2298261                       # Per bank write bursts
system.mem_ctrls.perBankRdBursts::5           2407662                       # Per bank write bursts
system.mem_ctrls.perBankRdBursts::6           2432570                       # Per bank write bursts
system.mem_ctrls.perBankRdBursts::7           2589468                       # Per bank write bursts
system.mem_ctrls.perBankRdBursts::8           2526347                       # Per bank write bursts
system.mem_ctrls.perBankRdBursts::9           2415679                       # Per bank write bursts
system.mem_ctrls.perBankRdBursts::10          2581974                       # Per bank write bursts
system.mem_ctrls.perBankRdBursts::11          2751744                       # Per bank write bursts
system.mem_ctrls.perBankRdBursts::12          2984297                       # Per bank write bursts
system.mem_ctrls.perBankRdBursts::13          2397209                       # Per bank write bursts
system.mem_ctrls.perBankRdBursts::14          2808539                       # Per bank write bursts
system.mem_ctrls.perBankRdBursts::15          2367927                       # Per bank write bursts
system.mem_ctrls.perBankWrBursts::0           1378898                       # Per bank write bursts
system.mem_ctrls.perBankWrBursts::1           1017257                       # Per bank write bursts
system.mem_ctrls.perBankWrBursts::2           1187772                       # Per bank write bursts
system.mem_ctrls.perBankWrBursts::3           1007760                       # Per bank write bursts
system.mem_ctrls.perBankWrBursts::4           1225247                       # Per bank write bursts
system.mem_ctrls.perBankWrBursts::5            828533                       # Per bank write bursts
system.mem_ctrls.perBankWrBursts::6           1047217                       # Per bank write bursts
system.mem_ctrls.perBankWrBursts::7           1008311                       # Per bank write bursts
system.mem_ctrls.perBankWrBursts::8           1245388                       # Per bank write bursts
system.mem_ctrls.perBankWrBursts::9            855330                       # Per bank write bursts
system.mem_ctrls.perBankWrBursts::10          1147896                       # Per bank write bursts
system.mem_ctrls.perBankWrBursts::11          1004527                       # Per bank write bursts
system.mem_ctrls.perBankWrBursts::12          1316928                       # Per bank write bursts
system.mem_ctrls.perBankWrBursts::13           837682                       # Per bank write bursts
system.mem_ctrls.perBankWrBursts::14          1096838                       # Per bank write bursts
system.mem_ctrls.perBankWrBursts::15           871938                       # Per bank write bursts
system.mem_ctrls.numRdRetry                         0                       # Number of times read queue was full causing retry
system.mem_ctrls.numWrRetry                      1494                       # Number of times write queue was full causing retry
system.mem_ctrls.totGap                  133365591530000                       # Total gap between requests
system.mem_ctrls.readPktSize::0                     0                       # Read request sizes (log2)
system.mem_ctrls.readPktSize::1                     0                       # Read request sizes (log2)
system.mem_ctrls.readPktSize::2                     0                       # Read request sizes (log2)
system.mem_ctrls.readPktSize::3                     0                       # Read request sizes (log2)
system.mem_ctrls.readPktSize::4                     0                       # Read request sizes (log2)
system.mem_ctrls.readPktSize::5                     0                       # Read request sizes (log2)
system.mem_ctrls.readPktSize::6              42136635                       # Read request sizes (log2)
system.mem_ctrls.writePktSize::0                    0                       # Write request sizes (log2)
system.mem_ctrls.writePktSize::1                    0                       # Write request sizes (log2)
system.mem_ctrls.writePktSize::2                    0                       # Write request sizes (log2)
system.mem_ctrls.writePktSize::3                    0                       # Write request sizes (log2)
system.mem_ctrls.writePktSize::4                    0                       # Write request sizes (log2)
system.mem_ctrls.writePktSize::5                    0                       # Write request sizes (log2)
system.mem_ctrls.writePktSize::6             17078433                       # Write request sizes (log2)
system.mem_ctrls.rdQLenPdf::0                23929147                       # What read queue length does an incoming req see
system.mem_ctrls.rdQLenPdf::1                 8490080                       # What read queue length does an incoming req see
system.mem_ctrls.rdQLenPdf::2                 2219437                       # What read queue length does an incoming req see
system.mem_ctrls.rdQLenPdf::3                 1084469                       # What read queue length does an incoming req see
system.mem_ctrls.rdQLenPdf::4                  747122                       # What read queue length does an incoming req see
system.mem_ctrls.rdQLenPdf::5                  682228                       # What read queue length does an incoming req see
system.mem_ctrls.rdQLenPdf::6                  743478                       # What read queue length does an incoming req see
system.mem_ctrls.rdQLenPdf::7                  866732                       # What read queue length does an incoming req see
system.mem_ctrls.rdQLenPdf::8                  358063                       # What read queue length does an incoming req see
system.mem_ctrls.rdQLenPdf::9                  350175                       # What read queue length does an incoming req see
system.mem_ctrls.rdQLenPdf::10                 359233                       # What read queue length does an incoming req see
system.mem_ctrls.rdQLenPdf::11                 354903                       # What read queue length does an incoming req see
system.mem_ctrls.rdQLenPdf::12                 338218                       # What read queue length does an incoming req see
system.mem_ctrls.rdQLenPdf::13                 299189                       # What read queue length does an incoming req see
system.mem_ctrls.rdQLenPdf::14                 194963                       # What read queue length does an incoming req see
system.mem_ctrls.rdQLenPdf::15                 187111                       # What read queue length does an incoming req see
system.mem_ctrls.rdQLenPdf::16                      0                       # What read queue length does an incoming req see
system.mem_ctrls.rdQLenPdf::17                      0                       # What read queue length does an incoming req see
system.mem_ctrls.rdQLenPdf::18                      0                       # What read queue length does an incoming req see
system.mem_ctrls.rdQLenPdf::19                      0                       # What read queue length does an incoming req see
system.mem_ctrls.rdQLenPdf::20                      0                       # What read queue length does an incoming req see
system.mem_ctrls.rdQLenPdf::21                      0                       # What read queue length does an incoming req see
system.mem_ctrls.rdQLenPdf::22                      0                       # What read queue length does an incoming req see
system.mem_ctrls.rdQLenPdf::23                      0                       # What read queue length does an incoming req see
system.mem_ctrls.rdQLenPdf::24                      0                       # What read queue length does an incoming req see
system.mem_ctrls.rdQLenPdf::25                      0                       # What read queue length does an incoming req see
system.mem_ctrls.rdQLenPdf::26                      0                       # What read queue length does an incoming req see
system.mem_ctrls.rdQLenPdf::27                      0                       # What read queue length does an incoming req see
system.mem_ctrls.rdQLenPdf::28                      0                       # What read queue length does an incoming req see
system.mem_ctrls.rdQLenPdf::29                      0                       # What read queue length does an incoming req see
system.mem_ctrls.rdQLenPdf::30                      0                       # What read queue length does an incoming req see
system.mem_ctrls.rdQLenPdf::31                      0                       # What read queue length does an incoming req see
system.mem_ctrls.wrQLenPdf::0                       1                       # What write queue length does an incoming req see
system.mem_ctrls.wrQLenPdf::1                       1                       # What write queue length does an incoming req see
system.mem_ctrls.wrQLenPdf::2                       1                       # What write queue length does an incoming req see
system.mem_ctrls.wrQLenPdf::3                       1                       # What write queue length does an incoming req see
system.mem_ctrls.wrQLenPdf::4                       1                       # What write queue length does an incoming req see
system.mem_ctrls.wrQLenPdf::5                       1                       # What write queue length does an incoming req see
system.mem_ctrls.wrQLenPdf::6                       1                       # What write queue length does an incoming req see
system.mem_ctrls.wrQLenPdf::7                       1                       # What write queue length does an incoming req see
system.mem_ctrls.wrQLenPdf::8                       1                       # What write queue length does an incoming req see
system.mem_ctrls.wrQLenPdf::9                       1                       # What write queue length does an incoming req see
system.mem_ctrls.wrQLenPdf::10                      1                       # What write queue length does an incoming req see
system.mem_ctrls.wrQLenPdf::11                      1                       # What write queue length does an incoming req see
system.mem_ctrls.wrQLenPdf::12                      1                       # What write queue length does an incoming req see
system.mem_ctrls.wrQLenPdf::13                      1                       # What write queue length does an incoming req see
system.mem_ctrls.wrQLenPdf::14                      1                       # What write queue length does an incoming req see
system.mem_ctrls.wrQLenPdf::15                 261522                       # What write queue length does an incoming req see
system.mem_ctrls.wrQLenPdf::16                 316336                       # What write queue length does an incoming req see
system.mem_ctrls.wrQLenPdf::17                 614917                       # What write queue length does an incoming req see
system.mem_ctrls.wrQLenPdf::18                 783780                       # What write queue length does an incoming req see
system.mem_ctrls.wrQLenPdf::19                 830966                       # What write queue length does an incoming req see
system.mem_ctrls.wrQLenPdf::20                 852612                       # What write queue length does an incoming req see
system.mem_ctrls.wrQLenPdf::21                 874833                       # What write queue length does an incoming req see
system.mem_ctrls.wrQLenPdf::22                 896817                       # What write queue length does an incoming req see
system.mem_ctrls.wrQLenPdf::23                 911067                       # What write queue length does an incoming req see
system.mem_ctrls.wrQLenPdf::24                 930496                       # What write queue length does an incoming req see
system.mem_ctrls.wrQLenPdf::25                 944058                       # What write queue length does an incoming req see
system.mem_ctrls.wrQLenPdf::26                 958581                       # What write queue length does an incoming req see
system.mem_ctrls.wrQLenPdf::27                 984607                       # What write queue length does an incoming req see
system.mem_ctrls.wrQLenPdf::28                1023410                       # What write queue length does an incoming req see
system.mem_ctrls.wrQLenPdf::29                 993645                       # What write queue length does an incoming req see
system.mem_ctrls.wrQLenPdf::30                 980321                       # What write queue length does an incoming req see
system.mem_ctrls.wrQLenPdf::31                 977172                       # What write queue length does an incoming req see
system.mem_ctrls.wrQLenPdf::32                 984163                       # What write queue length does an incoming req see
system.mem_ctrls.wrQLenPdf::33                 137567                       # What write queue length does an incoming req see
system.mem_ctrls.wrQLenPdf::34                 109064                       # What write queue length does an incoming req see
system.mem_ctrls.wrQLenPdf::35                  90826                       # What write queue length does an incoming req see
system.mem_ctrls.wrQLenPdf::36                  75271                       # What write queue length does an incoming req see
system.mem_ctrls.wrQLenPdf::37                  70340                       # What write queue length does an incoming req see
system.mem_ctrls.wrQLenPdf::38                  77135                       # What write queue length does an incoming req see
system.mem_ctrls.wrQLenPdf::39                  77527                       # What write queue length does an incoming req see
system.mem_ctrls.wrQLenPdf::40                  87568                       # What write queue length does an incoming req see
system.mem_ctrls.wrQLenPdf::41                 115379                       # What write queue length does an incoming req see
system.mem_ctrls.wrQLenPdf::42                 120948                       # What write queue length does an incoming req see
system.mem_ctrls.wrQLenPdf::43                  86311                       # What write queue length does an incoming req see
system.mem_ctrls.wrQLenPdf::44                 135907                       # What write queue length does an incoming req see
system.mem_ctrls.wrQLenPdf::45                  86910                       # What write queue length does an incoming req see
system.mem_ctrls.wrQLenPdf::46                  66876                       # What write queue length does an incoming req see
system.mem_ctrls.wrQLenPdf::47                  87579                       # What write queue length does an incoming req see
system.mem_ctrls.wrQLenPdf::48                 104191                       # What write queue length does an incoming req see
system.mem_ctrls.wrQLenPdf::49                 130679                       # What write queue length does an incoming req see
system.mem_ctrls.wrQLenPdf::50                  91087                       # What write queue length does an incoming req see
system.mem_ctrls.wrQLenPdf::51                  83341                       # What write queue length does an incoming req see
system.mem_ctrls.wrQLenPdf::52                  53519                       # What write queue length does an incoming req see
system.mem_ctrls.wrQLenPdf::53                  29081                       # What write queue length does an incoming req see
system.mem_ctrls.wrQLenPdf::54                  12748                       # What write queue length does an incoming req see
system.mem_ctrls.wrQLenPdf::55                   7426                       # What write queue length does an incoming req see
system.mem_ctrls.wrQLenPdf::56                   4972                       # What write queue length does an incoming req see
system.mem_ctrls.wrQLenPdf::57                   3395                       # What write queue length does an incoming req see
system.mem_ctrls.wrQLenPdf::58                   2471                       # What write queue length does an incoming req see
system.mem_ctrls.wrQLenPdf::59                   1988                       # What write queue length does an incoming req see
system.mem_ctrls.wrQLenPdf::60                   1653                       # What write queue length does an incoming req see
system.mem_ctrls.wrQLenPdf::61                   1502                       # What write queue length does an incoming req see
system.mem_ctrls.wrQLenPdf::62                   2138                       # What write queue length does an incoming req see
system.mem_ctrls.wrQLenPdf::63                   2820                       # What write queue length does an incoming req see
system.mem_ctrls.bytesPerActivate::samples     16781822                       # Bytes accessed per row activation
system.mem_ctrls.bytesPerActivate::mean    222.267371                       # Bytes accessed per row activation
system.mem_ctrls.bytesPerActivate::gmean   139.702688                       # Bytes accessed per row activation
system.mem_ctrls.bytesPerActivate::stdev   262.481227                       # Bytes accessed per row activation
system.mem_ctrls.bytesPerActivate::0-127      7420736     44.22%     44.22% # Bytes accessed per row activation
system.mem_ctrls.bytesPerActivate::128-255      4930509     29.38%     73.60% # Bytes accessed per row activation
system.mem_ctrls.bytesPerActivate::256-383      1589363      9.47%     83.07% # Bytes accessed per row activation
system.mem_ctrls.bytesPerActivate::384-511       749583      4.47%     87.54% # Bytes accessed per row activation
system.mem_ctrls.bytesPerActivate::512-639       435970      2.60%     90.13% # Bytes accessed per row activation
system.mem_ctrls.bytesPerActivate::640-767       276862      1.65%     91.78% # Bytes accessed per row activation
system.mem_ctrls.bytesPerActivate::768-895       188187      1.12%     92.91% # Bytes accessed per row activation
system.mem_ctrls.bytesPerActivate::896-1023       146121      0.87%     93.78% # Bytes accessed per row activation
system.mem_ctrls.bytesPerActivate::1024-1151      1044491      6.22%    100.00% # Bytes accessed per row activation
system.mem_ctrls.bytesPerActivate::total     16781822                       # Bytes accessed per row activation
system.mem_ctrls.rdPerTurnAround::samples      1010325                       # Reads before turning the bus around for writes
system.mem_ctrls.rdPerTurnAround::mean      40.783452                       # Reads before turning the bus around for writes
system.mem_ctrls.rdPerTurnAround::stdev     46.522636                       # Reads before turning the bus around for writes
system.mem_ctrls.rdPerTurnAround::0-255       1008210     99.79%     99.79% # Reads before turning the bus around for writes
system.mem_ctrls.rdPerTurnAround::256-511         1731      0.17%     99.96% # Reads before turning the bus around for writes
system.mem_ctrls.rdPerTurnAround::512-767          216      0.02%     99.98% # Reads before turning the bus around for writes
system.mem_ctrls.rdPerTurnAround::768-1023           66      0.01%     99.99% # Reads before turning the bus around for writes
system.mem_ctrls.rdPerTurnAround::1024-1279           26      0.00%     99.99% # Reads before turning the bus around for writes
system.mem_ctrls.rdPerTurnAround::1280-1535            7      0.00%     99.99% # Reads before turning the bus around for writes
system.mem_ctrls.rdPerTurnAround::1536-1791            5      0.00%     99.99% # Reads before turning the bus around for writes
system.mem_ctrls.rdPerTurnAround::1792-2047            3      0.00%     99.99% # Reads before turning the bus around for writes
system.mem_ctrls.rdPerTurnAround::2048-2303            6      0.00%     99.99% # Reads before turning the bus around for writes
system.mem_ctrls.rdPerTurnAround::2560-2815            3      0.00%     99.99% # Reads before turning the bus around for writes
system.mem_ctrls.rdPerTurnAround::2816-3071            6      0.00%    100.00% # Reads before turning the bus around for writes
system.mem_ctrls.rdPerTurnAround::3072-3327            5      0.00%    100.00% # Reads before turning the bus around for writes
system.mem_ctrls.rdPerTurnAround::3328-3583            8      0.00%    100.00% # Reads before turning the bus around for writes
system.mem_ctrls.rdPerTurnAround::3584-3839            5      0.00%    100.00% # Reads before turning the bus around for writes
system.mem_ctrls.rdPerTurnAround::3840-4095            6      0.00%    100.00% # Reads before turning the bus around for writes
system.mem_ctrls.rdPerTurnAround::4096-4351           11      0.00%    100.00% # Reads before turning the bus around for writes
system.mem_ctrls.rdPerTurnAround::4352-4607            7      0.00%    100.00% # Reads before turning the bus around for writes
system.mem_ctrls.rdPerTurnAround::4608-4863            1      0.00%    100.00% # Reads before turning the bus around for writes
system.mem_ctrls.rdPerTurnAround::4864-5119            2      0.00%    100.00% # Reads before turning the bus around for writes
system.mem_ctrls.rdPerTurnAround::5120-5375            1      0.00%    100.00% # Reads before turning the bus around for writes
system.mem_ctrls.rdPerTurnAround::total       1010325                       # Reads before turning the bus around for writes
system.mem_ctrls.wrPerTurnAround::samples      1010325                       # Writes before turning the bus around for reads
system.mem_ctrls.wrPerTurnAround::mean      16.902999                       # Writes before turning the bus around for reads
system.mem_ctrls.wrPerTurnAround::gmean     16.809392                       # Writes before turning the bus around for reads
system.mem_ctrls.wrPerTurnAround::stdev      2.104636                       # Writes before turning the bus around for reads
system.mem_ctrls.wrPerTurnAround::16-17        732258     72.48%     72.48% # Writes before turning the bus around for reads
system.mem_ctrls.wrPerTurnAround::18-19        233533     23.11%     95.59% # Writes before turning the bus around for reads
system.mem_ctrls.wrPerTurnAround::20-21         22985      2.28%     97.87% # Writes before turning the bus around for reads
system.mem_ctrls.wrPerTurnAround::22-23          6216      0.62%     98.48% # Writes before turning the bus around for reads
system.mem_ctrls.wrPerTurnAround::24-25          3004      0.30%     98.78% # Writes before turning the bus around for reads
system.mem_ctrls.wrPerTurnAround::26-27          2238      0.22%     99.00% # Writes before turning the bus around for reads
system.mem_ctrls.wrPerTurnAround::28-29          2020      0.20%     99.20% # Writes before turning the bus around for reads
system.mem_ctrls.wrPerTurnAround::30-31          3119      0.31%     99.51% # Writes before turning the bus around for reads
system.mem_ctrls.wrPerTurnAround::32-33          3359      0.33%     99.84% # Writes before turning the bus around for reads
system.mem_ctrls.wrPerTurnAround::34-35           408      0.04%     99.88% # Writes before turning the bus around for reads
system.mem_ctrls.wrPerTurnAround::36-37           639      0.06%     99.95% # Writes before turning the bus around for reads
system.mem_ctrls.wrPerTurnAround::38-39            70      0.01%     99.95% # Writes before turning the bus around for reads
system.mem_ctrls.wrPerTurnAround::40-41            43      0.00%     99.96% # Writes before turning the bus around for reads
system.mem_ctrls.wrPerTurnAround::42-43           183      0.02%     99.98% # Writes before turning the bus around for reads
system.mem_ctrls.wrPerTurnAround::44-45            39      0.00%     99.98% # Writes before turning the bus around for reads
system.mem_ctrls.wrPerTurnAround::46-47            28      0.00%     99.98% # Writes before turning the bus around for reads
system.mem_ctrls.wrPerTurnAround::48-49            26      0.00%     99.98% # Writes before turning the bus around for reads
system.mem_ctrls.wrPerTurnAround::50-51            21      0.00%     99.99% # Writes before turning the bus around for reads
system.mem_ctrls.wrPerTurnAround::52-53            17      0.00%     99.99% # Writes before turning the bus around for reads
system.mem_ctrls.wrPerTurnAround::54-55             8      0.00%     99.99% # Writes before turning the bus around for reads
system.mem_ctrls.wrPerTurnAround::56-57            12      0.00%     99.99% # Writes before turning the bus around for reads
system.mem_ctrls.wrPerTurnAround::58-59            13      0.00%     99.99% # Writes before turning the bus around for reads
system.mem_ctrls.wrPerTurnAround::60-61             9      0.00%     99.99% # Writes before turning the bus around for reads
system.mem_ctrls.wrPerTurnAround::62-63             5      0.00%     99.99% # Writes before turning the bus around for reads
system.mem_ctrls.wrPerTurnAround::64-65            12      0.00%     99.99% # Writes before turning the bus around for reads
system.mem_ctrls.wrPerTurnAround::66-67            10      0.00%    100.00% # Writes before turning the bus around for reads
system.mem_ctrls.wrPerTurnAround::68-69             6      0.00%    100.00% # Writes before turning the bus around for reads
system.mem_ctrls.wrPerTurnAround::70-71             2      0.00%    100.00% # Writes before turning the bus around for reads
system.mem_ctrls.wrPerTurnAround::72-73             4      0.00%    100.00% # Writes before turning the bus around for reads
system.mem_ctrls.wrPerTurnAround::74-75             3      0.00%    100.00% # Writes before turning the bus around for reads
system.mem_ctrls.wrPerTurnAround::76-77             6      0.00%    100.00% # Writes before turning the bus around for reads
system.mem_ctrls.wrPerTurnAround::78-79             3      0.00%    100.00% # Writes before turning the bus around for reads
system.mem_ctrls.wrPerTurnAround::80-81             2      0.00%    100.00% # Writes before turning the bus around for reads
system.mem_ctrls.wrPerTurnAround::82-83             2      0.00%    100.00% # Writes before turning the bus around for reads
system.mem_ctrls.wrPerTurnAround::84-85             3      0.00%    100.00% # Writes before turning the bus around for reads
system.mem_ctrls.wrPerTurnAround::86-87             2      0.00%    100.00% # Writes before turning the bus around for reads
system.mem_ctrls.wrPerTurnAround::88-89             3      0.00%    100.00% # Writes before turning the bus around for reads
system.mem_ctrls.wrPerTurnAround::90-91             4      0.00%    100.00% # Writes before turning the bus around for reads
system.mem_ctrls.wrPerTurnAround::92-93             1      0.00%    100.00% # Writes before turning the bus around for reads
system.mem_ctrls.wrPerTurnAround::94-95             2      0.00%    100.00% # Writes before turning the bus around for reads
system.mem_ctrls.wrPerTurnAround::96-97             3      0.00%    100.00% # Writes before turning the bus around for reads
system.mem_ctrls.wrPerTurnAround::98-99             1      0.00%    100.00% # Writes before turning the bus around for reads
system.mem_ctrls.wrPerTurnAround::106-107            3      0.00%    100.00% # Writes before turning the bus around for reads
system.mem_ctrls.wrPerTurnAround::total       1010325                       # Writes before turning the bus around for reads
system.mem_ctrls.totQLat                 1201418665584                       # Total ticks spent queuing
system.mem_ctrls.totMemAccLat            1974003940584                       # Total ticks spent from burst creation until serviced by the DRAM
system.mem_ctrls.totBusLat               206022740000                       # Total ticks spent in databus transfers
system.mem_ctrls.avgQLat                     29157.43                       # Average queueing delay per DRAM burst
system.mem_ctrls.avgBusLat                    5000.00                       # Average bus latency per DRAM burst
system.mem_ctrls.avgMemAccLat                47907.43                       # Average memory access latency per DRAM burst
system.mem_ctrls.avgRdBW                        19.77                       # Average DRAM read bandwidth in MiByte/s
system.mem_ctrls.avgWrBW                         8.20                       # Average achieved write bandwidth in MiByte/s
system.mem_ctrls.avgRdBWSys                     20.22                       # Average system read bandwidth in MiByte/s
system.mem_ctrls.avgWrBWSys                      8.20                       # Average system write bandwidth in MiByte/s
system.mem_ctrls.peakBW                      12800.00                       # Theoretical peak bandwidth in MiByte/s
system.mem_ctrls.busUtil                         0.22                       # Data bus utilization in percentage
system.mem_ctrls.busUtilRead                     0.15                       # Data bus utilization in percentage for reads
system.mem_ctrls.busUtilWrite                    0.06                       # Data bus utilization in percentage for writes
system.mem_ctrls.avgRdQLen                       1.05                       # Average read queue length when enqueuing
system.mem_ctrls.avgWrQLen                      24.26                       # Average write queue length when enqueuing
system.mem_ctrls.readRowHits                 30279809                       # Number of row buffer hits during reads
system.mem_ctrls.writeRowHits                11220430                       # Number of row buffer hits during writes
system.mem_ctrls.readRowHitRate                 73.49                       # Row buffer hit rate for reads
system.mem_ctrls.writeRowHitRate                65.70                       # Row buffer hit rate for writes
system.mem_ctrls.avgGap                    2252223.90                       # Average gap between requests
system.mem_ctrls.pageHitRate                    71.21                       # Row buffer hit rate, read and write combined
system.mem_ctrls_0.actEnergy              60879345660                       # Energy for activate commands per rank (pJ)
system.mem_ctrls_0.preEnergy              32358124425                       # Energy for precharge commands per rank (pJ)
system.mem_ctrls_0.readEnergy            145447740480                       # Energy for read commands per rank (pJ)
system.mem_ctrls_0.writeEnergy            45419193900                       # Energy for write commands per rank (pJ)
system.mem_ctrls_0.refreshEnergy         323668809360.000061                       # Energy for refresh commands per rank (pJ)
system.mem_ctrls_0.actBackEnergy         477108511320                       # Energy for active background per rank (pJ)
system.mem_ctrls_0.preBackEnergy          12361988160                       # Energy for precharge background per rank (pJ)
system.mem_ctrls_0.actPowerDownEnergy    1061879664600                       # Energy for active power-down per rank (pJ)
system.mem_ctrls_0.prePowerDownEnergy    180299695200                       # Energy for precharge power-down per rank (pJ)
system.mem_ctrls_0.selfRefreshEnergy     31094353161780                       # Energy for self refresh per rank (pJ)
system.mem_ctrls_0.totalEnergy           33433824603315                       # Total energy per rank (pJ)
system.mem_ctrls_0.averagePower            250.693032                       # Core power per rank (mW)
system.mem_ctrls_0.totalIdleTime         132287004220285                       # Total Idle time Per DRAM Rank
system.mem_ctrls_0.memoryStateTime::IDLE  16209742256                       # Time in different power states
system.mem_ctrls_0.memoryStateTime::REF  137107512000                       # Time in different power states
system.mem_ctrls_0.memoryStateTime::SREF 129488787113500                       # Time in different power states
system.mem_ctrls_0.memoryStateTime::PRE_PDN 469531017864                       # Time in different power states
system.mem_ctrls_0.memoryStateTime::ACT  925270618709                       # Time in different power states
system.mem_ctrls_0.memoryStateTime::ACT_PDN 2328686122171                       # Time in different power states
system.mem_ctrls_1.actEnergy              58942927680                       # Energy for activate commands per rank (pJ)
system.mem_ctrls_1.preEnergy              31328890065                       # Energy for precharge commands per rank (pJ)
system.mem_ctrls_1.readEnergy            148752732240                       # Energy for read commands per rank (pJ)
system.mem_ctrls_1.writeEnergy            43725470940                       # Energy for write commands per rank (pJ)
system.mem_ctrls_1.refreshEnergy         333904409280.000061                       # Energy for refresh commands per rank (pJ)
system.mem_ctrls_1.actBackEnergy         487577085720                       # Energy for active background per rank (pJ)
system.mem_ctrls_1.preBackEnergy          11302512960                       # Energy for precharge background per rank (pJ)
system.mem_ctrls_1.actPowerDownEnergy    1081487980950                       # Energy for active power-down per rank (pJ)
system.mem_ctrls_1.prePowerDownEnergy    194718744000                       # Energy for precharge power-down per rank (pJ)
system.mem_ctrls_1.selfRefreshEnergy     31072375266660                       # Energy for self refresh per rank (pJ)
system.mem_ctrls_1.totalEnergy           33464168082135                       # Total energy per rank (pJ)
system.mem_ctrls_1.averagePower            250.920553                       # Core power per rank (mW)
system.mem_ctrls_1.totalIdleTime         132266790347126                       # Total Idle time Per DRAM Rank
system.mem_ctrls_1.memoryStateTime::IDLE  13175039504                       # Time in different power states
system.mem_ctrls_1.memoryStateTime::REF  141461640000                       # Time in different power states
system.mem_ctrls_1.memoryStateTime::SREF 129388030057000                       # Time in different power states
system.mem_ctrls_1.memoryStateTime::PRE_PDN 507079374027                       # Time in different power states
system.mem_ctrls_1.memoryStateTime::ACT  944165099870                       # Time in different power states
system.mem_ctrls_1.memoryStateTime::ACT_PDN 2371680916099                       # Time in different power states
system.pwrStateResidencyTicks::UNDEFINED 133365592126500                       # Cumulative time (in ticks) in various power states
system.cf0.dma_read_full_pages                    155                       # Number of full page size DMA reads (not PRD).
system.cf0.dma_read_bytes                      634880                       # Number of bytes transfered via DMA reads (not PRD).
system.cf0.dma_read_txs                           155                       # Number of DMA read transactions (not PRD).
system.cf0.dma_write_full_pages                  7272                       # Number of full page size DMA writes.
system.cf0.dma_write_bytes                   29788672                       # Number of bytes transfered via DMA writes.
system.cf0.dma_write_txs                         7275                       # Number of DMA write transactions.
system.cpu.branchPred.lookups              1365053734                       # Number of BP lookups
system.cpu.branchPred.condPredicted        1098847983                       # Number of conditional branches predicted
system.cpu.branchPred.condIncorrect          77675113                       # Number of conditional branches incorrect
system.cpu.branchPred.BTBLookups            855260883                       # Number of BTB lookups
system.cpu.branchPred.BTBHits               630089757                       # Number of BTB hits
system.cpu.branchPred.BTBCorrect                    0                       # Number of correct BTB predictions (this stat may not work properly.
system.cpu.branchPred.BTBHitPct             73.672229                       # BTB Hit Percentage
system.cpu.branchPred.usedRAS                75463526                       # Number of times the RAS was used to get a target.
system.cpu.branchPred.RASInCorrect             304811                       # Number of incorrect RAS predictions.
system.cpu.branchPred.indirectLookups        21785233                       # Number of indirect predictor lookups.
system.cpu.branchPred.indirectHits           16565731                       # Number of indirect target hits.
system.cpu.branchPred.indirectMisses          5219502                       # Number of indirect misses.
system.cpu.branchPredindirectMispredicted      1925128                       # Number of mispredicted indirect branches.
system.cpu_voltage_domain.voltage                   1                       # Voltage in Volts
system.cpu_clk_domain.clock                       500                       # Clock period in ticks
system.cpu.dstage2_mmu.stage2_tlb.walker.pwrStateResidencyTicks::UNDEFINED 133365592126500                       # Cumulative time (in ticks) in various power states
system.cpu.dstage2_mmu.stage2_tlb.walker.walks            0                       # Table walker walks requested
system.cpu.dstage2_mmu.stage2_tlb.walker.walkRequestOrigin_Requested::Data            0                       # Table walker requests started/completed, data/inst
system.cpu.dstage2_mmu.stage2_tlb.walker.walkRequestOrigin_Requested::Inst            0                       # Table walker requests started/completed, data/inst
system.cpu.dstage2_mmu.stage2_tlb.walker.walkRequestOrigin_Requested::total            0                       # Table walker requests started/completed, data/inst
system.cpu.dstage2_mmu.stage2_tlb.walker.walkRequestOrigin_Completed::Data            0                       # Table walker requests started/completed, data/inst
system.cpu.dstage2_mmu.stage2_tlb.walker.walkRequestOrigin_Completed::Inst            0                       # Table walker requests started/completed, data/inst
system.cpu.dstage2_mmu.stage2_tlb.walker.walkRequestOrigin_Completed::total            0                       # Table walker requests started/completed, data/inst
system.cpu.dstage2_mmu.stage2_tlb.walker.walkRequestOrigin::total            0                       # Table walker requests started/completed, data/inst
system.cpu.dstage2_mmu.stage2_tlb.inst_hits            0                       # ITB inst hits
system.cpu.dstage2_mmu.stage2_tlb.inst_misses            0                       # ITB inst misses
system.cpu.dstage2_mmu.stage2_tlb.read_hits            0                       # DTB read hits
system.cpu.dstage2_mmu.stage2_tlb.read_misses            0                       # DTB read misses
system.cpu.dstage2_mmu.stage2_tlb.write_hits            0                       # DTB write hits
system.cpu.dstage2_mmu.stage2_tlb.write_misses            0                       # DTB write misses
system.cpu.dstage2_mmu.stage2_tlb.flush_tlb            0                       # Number of times complete TLB was flushed
system.cpu.dstage2_mmu.stage2_tlb.flush_tlb_mva            0                       # Number of times TLB was flushed by MVA
system.cpu.dstage2_mmu.stage2_tlb.flush_tlb_mva_asid            0                       # Number of times TLB was flushed by MVA & ASID
system.cpu.dstage2_mmu.stage2_tlb.flush_tlb_asid            0                       # Number of times TLB was flushed by ASID
system.cpu.dstage2_mmu.stage2_tlb.flush_entries            0                       # Number of entries that have been flushed from TLB
system.cpu.dstage2_mmu.stage2_tlb.align_faults            0                       # Number of TLB faults due to alignment restrictions
system.cpu.dstage2_mmu.stage2_tlb.prefetch_faults            0                       # Number of TLB faults due to prefetch
system.cpu.dstage2_mmu.stage2_tlb.domain_faults            0                       # Number of TLB faults due to domain restrictions
system.cpu.dstage2_mmu.stage2_tlb.perms_faults            0                       # Number of TLB faults due to permissions restrictions
system.cpu.dstage2_mmu.stage2_tlb.read_accesses            0                       # DTB read accesses
system.cpu.dstage2_mmu.stage2_tlb.write_accesses            0                       # DTB write accesses
system.cpu.dstage2_mmu.stage2_tlb.inst_accesses            0                       # ITB inst accesses
system.cpu.dstage2_mmu.stage2_tlb.hits              0                       # DTB hits
system.cpu.dstage2_mmu.stage2_tlb.misses            0                       # DTB misses
system.cpu.dstage2_mmu.stage2_tlb.accesses            0                       # DTB accesses
system.cpu.dtb.walker.pwrStateResidencyTicks::UNDEFINED 133365592126500                       # Cumulative time (in ticks) in various power states
system.cpu.dtb.walker.walks                   9798095                       # Table walker walks requested
system.cpu.dtb.walker.walksLong               9798095                       # Table walker walks initiated with long descriptors
system.cpu.dtb.walker.walksLongTerminationLevel::Level2        44286                       # Level at which table walker walks with long descriptors terminate
system.cpu.dtb.walker.walksLongTerminationLevel::Level3      1366919                       # Level at which table walker walks with long descriptors terminate
system.cpu.dtb.walker.walksSquashedBefore      1312158                       # Table walks squashed before starting
system.cpu.dtb.walker.walkWaitTime::samples      8485937                       # Table walker wait (enqueue to first request) latency
system.cpu.dtb.walker.walkWaitTime::mean   613.528064                       # Table walker wait (enqueue to first request) latency
system.cpu.dtb.walker.walkWaitTime::stdev  8233.606064                       # Table walker wait (enqueue to first request) latency
system.cpu.dtb.walker.walkWaitTime::0-131071      8478416     99.91%     99.91% # Table walker wait (enqueue to first request) latency
system.cpu.dtb.walker.walkWaitTime::131072-262143         6403      0.08%     99.99% # Table walker wait (enqueue to first request) latency
system.cpu.dtb.walker.walkWaitTime::262144-393215          793      0.01%    100.00% # Table walker wait (enqueue to first request) latency
system.cpu.dtb.walker.walkWaitTime::393216-524287          175      0.00%    100.00% # Table walker wait (enqueue to first request) latency
system.cpu.dtb.walker.walkWaitTime::524288-655359          138      0.00%    100.00% # Table walker wait (enqueue to first request) latency
system.cpu.dtb.walker.walkWaitTime::655360-786431           10      0.00%    100.00% # Table walker wait (enqueue to first request) latency
system.cpu.dtb.walker.walkWaitTime::786432-917503            1      0.00%    100.00% # Table walker wait (enqueue to first request) latency
system.cpu.dtb.walker.walkWaitTime::1.17965e+06-1.31072e+06            1      0.00%    100.00% # Table walker wait (enqueue to first request) latency
system.cpu.dtb.walker.walkWaitTime::total      8485937                       # Table walker wait (enqueue to first request) latency
system.cpu.dtb.walker.walkCompletionTime::samples      2549243                       # Table walker service (enqueue to completion) latency
system.cpu.dtb.walker.walkCompletionTime::mean 24958.249647                       # Table walker service (enqueue to completion) latency
system.cpu.dtb.walker.walkCompletionTime::gmean  8883.429720                       # Table walker service (enqueue to completion) latency
system.cpu.dtb.walker.walkCompletionTime::stdev 50075.400995                       # Table walker service (enqueue to completion) latency
system.cpu.dtb.walker.walkCompletionTime::0-131071      2479487     97.26%     97.26% # Table walker service (enqueue to completion) latency
system.cpu.dtb.walker.walkCompletionTime::131072-262143        52891      2.07%     99.34% # Table walker service (enqueue to completion) latency
system.cpu.dtb.walker.walkCompletionTime::262144-393215         9649      0.38%     99.72% # Table walker service (enqueue to completion) latency
system.cpu.dtb.walker.walkCompletionTime::393216-524287         1456      0.06%     99.77% # Table walker service (enqueue to completion) latency
system.cpu.dtb.walker.walkCompletionTime::524288-655359         5520      0.22%     99.99% # Table walker service (enqueue to completion) latency
system.cpu.dtb.walker.walkCompletionTime::655360-786431          204      0.01%    100.00% # Table walker service (enqueue to completion) latency
system.cpu.dtb.walker.walkCompletionTime::786432-917503           29      0.00%    100.00% # Table walker service (enqueue to completion) latency
system.cpu.dtb.walker.walkCompletionTime::917504-1.04858e+06            1      0.00%    100.00% # Table walker service (enqueue to completion) latency
system.cpu.dtb.walker.walkCompletionTime::1.17965e+06-1.31072e+06            4      0.00%    100.00% # Table walker service (enqueue to completion) latency
system.cpu.dtb.walker.walkCompletionTime::1.31072e+06-1.44179e+06            2      0.00%    100.00% # Table walker service (enqueue to completion) latency
system.cpu.dtb.walker.walkCompletionTime::total      2549243                       # Table walker service (enqueue to completion) latency
system.cpu.dtb.walker.walksPending::samples 5633244205460                       # Table walker pending requests distribution
system.cpu.dtb.walker.walksPending::mean     0.782998                       # Table walker pending requests distribution
system.cpu.dtb.walker.walksPending::stdev     0.449127                       # Table walker pending requests distribution
system.cpu.dtb.walker.walksPending::0-1  5625865866460     99.87%     99.87% # Table walker pending requests distribution
system.cpu.dtb.walker.walksPending::2-3    4068224000      0.07%     99.94% # Table walker pending requests distribution
system.cpu.dtb.walker.walksPending::4-5    1553485500      0.03%     99.97% # Table walker pending requests distribution
system.cpu.dtb.walker.walksPending::6-7     527278500      0.01%     99.98% # Table walker pending requests distribution
system.cpu.dtb.walker.walksPending::8-9     863997000      0.02%     99.99% # Table walker pending requests distribution
system.cpu.dtb.walker.walksPending::10-11     92353000      0.00%    100.00% # Table walker pending requests distribution
system.cpu.dtb.walker.walksPending::12-13     73239000      0.00%    100.00% # Table walker pending requests distribution
system.cpu.dtb.walker.walksPending::14-15    191959500      0.00%    100.00% # Table walker pending requests distribution
system.cpu.dtb.walker.walksPending::16-17      7642000      0.00%    100.00% # Table walker pending requests distribution
system.cpu.dtb.walker.walksPending::18-19        29000      0.00%    100.00% # Table walker pending requests distribution
system.cpu.dtb.walker.walksPending::20-21       131500      0.00%    100.00% # Table walker pending requests distribution
system.cpu.dtb.walker.walksPending::total 5633244205460                       # Table walker pending requests distribution
system.cpu.dtb.walker.walkPageSizes::4K       1366919     96.86%     96.86% # Table walker page sizes translated
system.cpu.dtb.walker.walkPageSizes::2M         44286      3.14%    100.00% # Table walker page sizes translated
system.cpu.dtb.walker.walkPageSizes::total      1411205                       # Table walker page sizes translated
system.cpu.dtb.walker.walkRequestOrigin_Requested::Data      9798095                       # Table walker requests started/completed, data/inst
system.cpu.dtb.walker.walkRequestOrigin_Requested::Inst            0                       # Table walker requests started/completed, data/inst
system.cpu.dtb.walker.walkRequestOrigin_Requested::total      9798095                       # Table walker requests started/completed, data/inst
system.cpu.dtb.walker.walkRequestOrigin_Completed::Data      1411205                       # Table walker requests started/completed, data/inst
system.cpu.dtb.walker.walkRequestOrigin_Completed::Inst            0                       # Table walker requests started/completed, data/inst
system.cpu.dtb.walker.walkRequestOrigin_Completed::total      1411205                       # Table walker requests started/completed, data/inst
system.cpu.dtb.walker.walkRequestOrigin::total     11209300                       # Table walker requests started/completed, data/inst
system.cpu.dtb.inst_hits                            0                       # ITB inst hits
system.cpu.dtb.inst_misses                          0                       # ITB inst misses
system.cpu.dtb.read_hits                   1765654325                       # DTB read hits
system.cpu.dtb.read_misses                    8875234                       # DTB read misses
system.cpu.dtb.write_hits                   583919883                       # DTB write hits
system.cpu.dtb.write_misses                    922861                       # DTB write misses
system.cpu.dtb.flush_tlb                           13                       # Number of times complete TLB was flushed
system.cpu.dtb.flush_tlb_mva                        6                       # Number of times TLB was flushed by MVA
system.cpu.dtb.flush_tlb_mva_asid              114946                       # Number of times TLB was flushed by MVA & ASID
system.cpu.dtb.flush_tlb_asid                     701                       # Number of times TLB was flushed by ASID
system.cpu.dtb.flush_entries                    91611                       # Number of entries that have been flushed from TLB
system.cpu.dtb.align_faults                      1021                       # Number of TLB faults due to alignment restrictions
system.cpu.dtb.prefetch_faults                  28499                       # Number of TLB faults due to prefetch
system.cpu.dtb.domain_faults                        0                       # Number of TLB faults due to domain restrictions
system.cpu.dtb.perms_faults                    182369                       # Number of TLB faults due to permissions restrictions
system.cpu.dtb.read_accesses               1774529559                       # DTB read accesses
system.cpu.dtb.write_accesses               584842744                       # DTB write accesses
system.cpu.dtb.inst_accesses                        0                       # ITB inst accesses
system.cpu.dtb.hits                        2349574208                       # DTB hits
system.cpu.dtb.misses                         9798095                       # DTB misses
system.cpu.dtb.accesses                    2359372303                       # DTB accesses
system.cpu.istage2_mmu.stage2_tlb.walker.pwrStateResidencyTicks::UNDEFINED 133365592126500                       # Cumulative time (in ticks) in various power states
system.cpu.istage2_mmu.stage2_tlb.walker.walks            0                       # Table walker walks requested
system.cpu.istage2_mmu.stage2_tlb.walker.walkRequestOrigin_Requested::Data            0                       # Table walker requests started/completed, data/inst
system.cpu.istage2_mmu.stage2_tlb.walker.walkRequestOrigin_Requested::Inst            0                       # Table walker requests started/completed, data/inst
system.cpu.istage2_mmu.stage2_tlb.walker.walkRequestOrigin_Requested::total            0                       # Table walker requests started/completed, data/inst
system.cpu.istage2_mmu.stage2_tlb.walker.walkRequestOrigin_Completed::Data            0                       # Table walker requests started/completed, data/inst
system.cpu.istage2_mmu.stage2_tlb.walker.walkRequestOrigin_Completed::Inst            0                       # Table walker requests started/completed, data/inst
system.cpu.istage2_mmu.stage2_tlb.walker.walkRequestOrigin_Completed::total            0                       # Table walker requests started/completed, data/inst
system.cpu.istage2_mmu.stage2_tlb.walker.walkRequestOrigin::total            0                       # Table walker requests started/completed, data/inst
system.cpu.istage2_mmu.stage2_tlb.inst_hits            0                       # ITB inst hits
system.cpu.istage2_mmu.stage2_tlb.inst_misses            0                       # ITB inst misses
system.cpu.istage2_mmu.stage2_tlb.read_hits            0                       # DTB read hits
system.cpu.istage2_mmu.stage2_tlb.read_misses            0                       # DTB read misses
system.cpu.istage2_mmu.stage2_tlb.write_hits            0                       # DTB write hits
system.cpu.istage2_mmu.stage2_tlb.write_misses            0                       # DTB write misses
system.cpu.istage2_mmu.stage2_tlb.flush_tlb            0                       # Number of times complete TLB was flushed
system.cpu.istage2_mmu.stage2_tlb.flush_tlb_mva            0                       # Number of times TLB was flushed by MVA
system.cpu.istage2_mmu.stage2_tlb.flush_tlb_mva_asid            0                       # Number of times TLB was flushed by MVA & ASID
system.cpu.istage2_mmu.stage2_tlb.flush_tlb_asid            0                       # Number of times TLB was flushed by ASID
system.cpu.istage2_mmu.stage2_tlb.flush_entries            0                       # Number of entries that have been flushed from TLB
system.cpu.istage2_mmu.stage2_tlb.align_faults            0                       # Number of TLB faults due to alignment restrictions
system.cpu.istage2_mmu.stage2_tlb.prefetch_faults            0                       # Number of TLB faults due to prefetch
system.cpu.istage2_mmu.stage2_tlb.domain_faults            0                       # Number of TLB faults due to domain restrictions
system.cpu.istage2_mmu.stage2_tlb.perms_faults            0                       # Number of TLB faults due to permissions restrictions
system.cpu.istage2_mmu.stage2_tlb.read_accesses            0                       # DTB read accesses
system.cpu.istage2_mmu.stage2_tlb.write_accesses            0                       # DTB write accesses
system.cpu.istage2_mmu.stage2_tlb.inst_accesses            0                       # ITB inst accesses
system.cpu.istage2_mmu.stage2_tlb.hits              0                       # DTB hits
system.cpu.istage2_mmu.stage2_tlb.misses            0                       # DTB misses
system.cpu.istage2_mmu.stage2_tlb.accesses            0                       # DTB accesses
system.cpu.itb.walker.pwrStateResidencyTicks::UNDEFINED 133365592126500                       # Cumulative time (in ticks) in various power states
system.cpu.itb.walker.walks                    441895                       # Table walker walks requested
system.cpu.itb.walker.walksLong                441895                       # Table walker walks initiated with long descriptors
system.cpu.itb.walker.walksLongTerminationLevel::Level2         6229                       # Level at which table walker walks with long descriptors terminate
system.cpu.itb.walker.walksLongTerminationLevel::Level3       289211                       # Level at which table walker walks with long descriptors terminate
system.cpu.itb.walker.walksSquashedBefore        27666                       # Table walks squashed before starting
system.cpu.itb.walker.walkWaitTime::samples       414229                       # Table walker wait (enqueue to first request) latency
system.cpu.itb.walker.walkWaitTime::mean   723.557501                       # Table walker wait (enqueue to first request) latency
system.cpu.itb.walker.walkWaitTime::stdev  8220.345296                       # Table walker wait (enqueue to first request) latency
system.cpu.itb.walker.walkWaitTime::0-65535       412476     99.58%     99.58% # Table walker wait (enqueue to first request) latency
system.cpu.itb.walker.walkWaitTime::65536-131071         1463      0.35%     99.93% # Table walker wait (enqueue to first request) latency
system.cpu.itb.walker.walkWaitTime::131072-196607          179      0.04%     99.97% # Table walker wait (enqueue to first request) latency
system.cpu.itb.walker.walkWaitTime::196608-262143           49      0.01%     99.99% # Table walker wait (enqueue to first request) latency
system.cpu.itb.walker.walkWaitTime::262144-327679           44      0.01%    100.00% # Table walker wait (enqueue to first request) latency
system.cpu.itb.walker.walkWaitTime::327680-393215           15      0.00%    100.00% # Table walker wait (enqueue to first request) latency
system.cpu.itb.walker.walkWaitTime::393216-458751            1      0.00%    100.00% # Table walker wait (enqueue to first request) latency
system.cpu.itb.walker.walkWaitTime::524288-589823            1      0.00%    100.00% # Table walker wait (enqueue to first request) latency
system.cpu.itb.walker.walkWaitTime::589824-655359            1      0.00%    100.00% # Table walker wait (enqueue to first request) latency
system.cpu.itb.walker.walkWaitTime::total       414229                       # Table walker wait (enqueue to first request) latency
system.cpu.itb.walker.walkCompletionTime::samples       323106                       # Table walker service (enqueue to completion) latency
system.cpu.itb.walker.walkCompletionTime::mean 21696.614857                       # Table walker service (enqueue to completion) latency
system.cpu.itb.walker.walkCompletionTime::gmean  7998.083232                       # Table walker service (enqueue to completion) latency
system.cpu.itb.walker.walkCompletionTime::stdev 41286.597057                       # Table walker service (enqueue to completion) latency
system.cpu.itb.walker.walkCompletionTime::0-65535       276928     85.71%     85.71% # Table walker service (enqueue to completion) latency
system.cpu.itb.walker.walkCompletionTime::65536-131071        39889     12.35%     98.05% # Table walker service (enqueue to completion) latency
system.cpu.itb.walker.walkCompletionTime::131072-196607         3729      1.15%     99.21% # Table walker service (enqueue to completion) latency
system.cpu.itb.walker.walkCompletionTime::196608-262143         1235      0.38%     99.59% # Table walker service (enqueue to completion) latency
system.cpu.itb.walker.walkCompletionTime::262144-327679          738      0.23%     99.82% # Table walker service (enqueue to completion) latency
system.cpu.itb.walker.walkCompletionTime::327680-393215          369      0.11%     99.93% # Table walker service (enqueue to completion) latency
system.cpu.itb.walker.walkCompletionTime::393216-458751           78      0.02%     99.96% # Table walker service (enqueue to completion) latency
system.cpu.itb.walker.walkCompletionTime::458752-524287           30      0.01%     99.97% # Table walker service (enqueue to completion) latency
system.cpu.itb.walker.walkCompletionTime::524288-589823            9      0.00%     99.97% # Table walker service (enqueue to completion) latency
system.cpu.itb.walker.walkCompletionTime::589824-655359           97      0.03%    100.00% # Table walker service (enqueue to completion) latency
system.cpu.itb.walker.walkCompletionTime::655360-720895            3      0.00%    100.00% # Table walker service (enqueue to completion) latency
system.cpu.itb.walker.walkCompletionTime::720896-786431            1      0.00%    100.00% # Table walker service (enqueue to completion) latency
system.cpu.itb.walker.walkCompletionTime::total       323106                       # Table walker service (enqueue to completion) latency
system.cpu.itb.walker.walksPending::samples 1926706668512                       # Table walker pending requests distribution
system.cpu.itb.walker.walksPending::mean     0.952505                       # Table walker pending requests distribution
system.cpu.itb.walker.walksPending::stdev     0.213064                       # Table walker pending requests distribution
system.cpu.itb.walker.walksPending::0     91659749428      4.76%      4.76% # Table walker pending requests distribution
system.cpu.itb.walker.walksPending::1    1834896489084     95.23%     99.99% # Table walker pending requests distribution
system.cpu.itb.walker.walksPending::2       149992000      0.01%    100.00% # Table walker pending requests distribution
system.cpu.itb.walker.walksPending::3          425000      0.00%    100.00% # Table walker pending requests distribution
system.cpu.itb.walker.walksPending::4           10500      0.00%    100.00% # Table walker pending requests distribution
system.cpu.itb.walker.walksPending::5            2500      0.00%    100.00% # Table walker pending requests distribution
system.cpu.itb.walker.walksPending::total 1926706668512                       # Table walker pending requests distribution
system.cpu.itb.walker.walkPageSizes::4K        289211     97.89%     97.89% # Table walker page sizes translated
system.cpu.itb.walker.walkPageSizes::2M          6229      2.11%    100.00% # Table walker page sizes translated
system.cpu.itb.walker.walkPageSizes::total       295440                       # Table walker page sizes translated
system.cpu.itb.walker.walkRequestOrigin_Requested::Data            0                       # Table walker requests started/completed, data/inst
system.cpu.itb.walker.walkRequestOrigin_Requested::Inst       441895                       # Table walker requests started/completed, data/inst
system.cpu.itb.walker.walkRequestOrigin_Requested::total       441895                       # Table walker requests started/completed, data/inst
system.cpu.itb.walker.walkRequestOrigin_Completed::Data            0                       # Table walker requests started/completed, data/inst
system.cpu.itb.walker.walkRequestOrigin_Completed::Inst       295440                       # Table walker requests started/completed, data/inst
system.cpu.itb.walker.walkRequestOrigin_Completed::total       295440                       # Table walker requests started/completed, data/inst
system.cpu.itb.walker.walkRequestOrigin::total       737335                       # Table walker requests started/completed, data/inst
system.cpu.itb.inst_hits                   2744871582                       # ITB inst hits
system.cpu.itb.inst_misses                     441895                       # ITB inst misses
system.cpu.itb.read_hits                            0                       # DTB read hits
system.cpu.itb.read_misses                          0                       # DTB read misses
system.cpu.itb.write_hits                           0                       # DTB write hits
system.cpu.itb.write_misses                         0                       # DTB write misses
system.cpu.itb.flush_tlb                           13                       # Number of times complete TLB was flushed
system.cpu.itb.flush_tlb_mva                        6                       # Number of times TLB was flushed by MVA
system.cpu.itb.flush_tlb_mva_asid              114946                       # Number of times TLB was flushed by MVA & ASID
system.cpu.itb.flush_tlb_asid                     701                       # Number of times TLB was flushed by ASID
system.cpu.itb.flush_entries                    41341                       # Number of entries that have been flushed from TLB
system.cpu.itb.align_faults                         0                       # Number of TLB faults due to alignment restrictions
system.cpu.itb.prefetch_faults                      0                       # Number of TLB faults due to prefetch
system.cpu.itb.domain_faults                        0                       # Number of TLB faults due to domain restrictions
system.cpu.itb.perms_faults                    688773                       # Number of TLB faults due to permissions restrictions
system.cpu.itb.read_accesses                        0                       # DTB read accesses
system.cpu.itb.write_accesses                       0                       # DTB write accesses
system.cpu.itb.inst_accesses               2745313477                       # ITB inst accesses
system.cpu.itb.hits                        2744871582                       # DTB hits
system.cpu.itb.misses                          441895                       # DTB misses
system.cpu.itb.accesses                    2745313477                       # DTB accesses
system.cpu.numPwrStateTransitions               41432                       # Number of power state transitions
system.cpu.pwrStateClkGateDist::samples         20716                       # Distribution of time spent in the clock gated state
system.cpu.pwrStateClkGateDist::mean     6163289978.313381                       # Distribution of time spent in the clock gated state
system.cpu.pwrStateClkGateDist::stdev    75016171477.698151                       # Distribution of time spent in the clock gated state
system.cpu.pwrStateClkGateDist::underflows        20394     98.45%     98.45% # Distribution of time spent in the clock gated state
system.cpu.pwrStateClkGateDist::1000-5e+10          156      0.75%     99.20% # Distribution of time spent in the clock gated state
system.cpu.pwrStateClkGateDist::5e+10-1e+11           15      0.07%     99.27% # Distribution of time spent in the clock gated state
system.cpu.pwrStateClkGateDist::1e+11-1.5e+11            7      0.03%     99.30% # Distribution of time spent in the clock gated state
system.cpu.pwrStateClkGateDist::1.5e+11-2e+11            5      0.02%     99.33% # Distribution of time spent in the clock gated state
system.cpu.pwrStateClkGateDist::2e+11-2.5e+11            1      0.00%     99.33% # Distribution of time spent in the clock gated state
system.cpu.pwrStateClkGateDist::2.5e+11-3e+11            3      0.01%     99.35% # Distribution of time spent in the clock gated state
system.cpu.pwrStateClkGateDist::3.5e+11-4e+11            7      0.03%     99.38% # Distribution of time spent in the clock gated state
system.cpu.pwrStateClkGateDist::4e+11-4.5e+11            1      0.00%     99.39% # Distribution of time spent in the clock gated state
system.cpu.pwrStateClkGateDist::4.5e+11-5e+11            2      0.01%     99.40% # Distribution of time spent in the clock gated state
system.cpu.pwrStateClkGateDist::5e+11-5.5e+11            3      0.01%     99.41% # Distribution of time spent in the clock gated state
system.cpu.pwrStateClkGateDist::6e+11-6.5e+11            7      0.03%     99.44% # Distribution of time spent in the clock gated state
system.cpu.pwrStateClkGateDist::7.5e+11-8e+11            1      0.00%     99.45% # Distribution of time spent in the clock gated state
system.cpu.pwrStateClkGateDist::8.5e+11-9e+11            6      0.03%     99.48% # Distribution of time spent in the clock gated state
system.cpu.pwrStateClkGateDist::9e+11-9.5e+11            9      0.04%     99.52% # Distribution of time spent in the clock gated state
system.cpu.pwrStateClkGateDist::9.5e+11-1e+12           99      0.48%    100.00% # Distribution of time spent in the clock gated state
system.cpu.pwrStateClkGateDist::min_value          501                       # Distribution of time spent in the clock gated state
system.cpu.pwrStateClkGateDist::max_value 999972120344                       # Distribution of time spent in the clock gated state
system.cpu.pwrStateClkGateDist::total           20716                       # Distribution of time spent in the clock gated state
system.cpu.pwrStateResidencyTicks::ON    5686876935760                       # Cumulative time (in ticks) in various power states
system.cpu.pwrStateResidencyTicks::CLK_GATED 127678715190740                       # Cumulative time (in ticks) in various power states
system.cpu.numCycles                      11373755349                       # number of cpu cycles simulated
system.cpu.numWorkItemsStarted                      0                       # number of work items this cpu started
system.cpu.numWorkItemsCompleted                    0                       # number of work items this cpu completed
system.cpu.fetch.icacheStallCycles         3420924421                       # Number of cycles fetch is stalled on an Icache miss
system.cpu.fetch.Insts                     8339872626                       # Number of instructions fetch has processed
system.cpu.fetch.Branches                  1365053734                       # Number of branches that fetch encountered
system.cpu.fetch.predictedBranches          722119014                       # Number of branches that fetch has predicted taken
system.cpu.fetch.Cycles                    6835298224                       # Number of cycles fetch has run and was not squashing or blocked
system.cpu.fetch.SquashCycles               157866514                       # Number of cycles fetch has spent squashing
system.cpu.fetch.TlbCycles                    6791550                       # Number of cycles fetch has spent waiting for tlb
system.cpu.fetch.MiscStallCycles             21834107                       # Number of cycles fetch has spent waiting on interrupts, or bad addresses, or out of MSHRs
system.cpu.fetch.PendingTrapStallCycles      16167267                       # Number of stall cycles due to pending traps
system.cpu.fetch.PendingQuiesceStallCycles      3802061                       # Number of stall cycles due to pending quiesce instructions
system.cpu.fetch.IcacheWaitRetryStallCycles     36826933                       # Number of stall cycles due to full MSHR
system.cpu.fetch.CacheLines                2744120902                       # Number of cache lines fetched
system.cpu.fetch.IcacheSquashes              37068806                       # Number of outstanding Icache misses that were squashed
system.cpu.fetch.ItlbSquashes                   76283                       # Number of outstanding ITLB misses that were squashed
system.cpu.fetch.rateDist::samples        10420577820                       # Number of instructions fetched each cycle (Total)
system.cpu.fetch.rateDist::mean              0.850857                       # Number of instructions fetched each cycle (Total)
system.cpu.fetch.rateDist::stdev             1.172758                       # Number of instructions fetched each cycle (Total)
system.cpu.fetch.rateDist::underflows               0      0.00%      0.00% # Number of instructions fetched each cycle (Total)
system.cpu.fetch.rateDist::0               6074853677     58.30%     58.30% # Number of instructions fetched each cycle (Total)
system.cpu.fetch.rateDist::1               1809182712     17.36%     75.66% # Number of instructions fetched each cycle (Total)
system.cpu.fetch.rateDist::2                552387988      5.30%     80.96% # Number of instructions fetched each cycle (Total)
system.cpu.fetch.rateDist::3               1984153443     19.04%    100.00% # Number of instructions fetched each cycle (Total)
system.cpu.fetch.rateDist::overflows                0      0.00%    100.00% # Number of instructions fetched each cycle (Total)
system.cpu.fetch.rateDist::min_value                0                       # Number of instructions fetched each cycle (Total)
system.cpu.fetch.rateDist::max_value                3                       # Number of instructions fetched each cycle (Total)
system.cpu.fetch.rateDist::total          10420577820                       # Number of instructions fetched each cycle (Total)
system.cpu.fetch.branchRate                  0.120018                       # Number of branch fetches per cycle
system.cpu.fetch.rate                        0.733256                       # Number of inst fetches per cycle
system.cpu.decode.IdleCycles               2689885508                       # Number of cycles decode is idle
system.cpu.decode.BlockedCycles            3988357598                       # Number of cycles decode is blocked
system.cpu.decode.RunCycles                3238828871                       # Number of cycles decode is running
system.cpu.decode.UnblockCycles             434201475                       # Number of cycles decode is unblocking
system.cpu.decode.SquashCycles               69304368                       # Number of cycles decode is squashing
system.cpu.decode.BranchResolved            590028571                       # Number of times decode resolved a branch
system.cpu.decode.BranchMispred               9761955                       # Number of times decode detected a branch misprediction
system.cpu.decode.DecodedInsts             8246280582                       # Number of instructions handled by decode
system.cpu.decode.SquashedInsts             183551863                       # Number of squashed instructions handled by decode
system.cpu.rename.SquashCycles               69304368                       # Number of cycles rename is squashing
[...]
system.ruby.Directory_Controller.Data    |         678    100.00%    100.00% |           0      0.00%    100.00%
system.ruby.Directory_Controller.Data::total          678                      
system.ruby.Directory_Controller.I.GETX  |     9648954    100.00%    100.00% |           0      0.00%    100.00%
system.ruby.Directory_Controller.I.GETX::total      9648954                      
system.ruby.Directory_Controller.I.GETS  |     7924633    100.00%    100.00% |           9      0.00%    100.00%
system.ruby.Directory_Controller.I.GETS::total      7924642                      
system.ruby.Directory_Controller.I.Memory_Ack |    16656224    100.00%    100.00% |           0      0.00%    100.00%
system.ruby.Directory_Controller.I.Memory_Ack::total     16656224                      
system.ruby.Directory_Controller.I.DMA_READ |       11107    100.00%    100.00% |           0      0.00%    100.00%
system.ruby.Directory_Controller.I.DMA_READ::total        11107                      
system.ruby.Directory_Controller.I.DMA_WRITE |      452049    100.00%    100.00% |           0      0.00%    100.00%
system.ruby.Directory_Controller.I.DMA_WRITE::total       452049                      
system.ruby.Directory_Controller.S.GETX  |     6995379    100.00%    100.00% |           0      0.00%    100.00%
system.ruby.Directory_Controller.S.GETX::total      6995379                      
system.ruby.Directory_Controller.S.GETS  |    17654443    100.00%    100.00% |           0      0.00%    100.00%
system.ruby.Directory_Controller.S.GETS::total     17654443                      
system.ruby.Directory_Controller.S.DMA_READ |      127264    100.00%    100.00% |           0      0.00%    100.00%
system.ruby.Directory_Controller.S.DMA_READ::total       127264                      
system.ruby.Directory_Controller.S.DMA_WRITE |       12785    100.00%    100.00% |           0      0.00%    100.00%
system.ruby.Directory_Controller.S.DMA_WRITE::total        12785                      
system.ruby.Directory_Controller.M.PUTX  |    16642306    100.00%    100.00% |           0      0.00%    100.00%
system.ruby.Directory_Controller.M.PUTX::total     16642306                      
system.ruby.Directory_Controller.M.DMA_READ |        5493    100.00%    100.00% |           0      0.00%    100.00%
system.ruby.Directory_Controller.M.DMA_READ::total         5493                      
system.ruby.Directory_Controller.M.DMA_WRITE |         678    100.00%    100.00% |           0      0.00%    100.00%
system.ruby.Directory_Controller.M.DMA_WRITE::total          678                      
system.ruby.Directory_Controller.IS.GETX |          40    100.00%    100.00% |           0      0.00%    100.00%
system.ruby.Directory_Controller.IS.GETX::total           40                      
system.ruby.Directory_Controller.IS.Unblock |     7924633    100.00%    100.00% |           9      0.00%    100.00%
system.ruby.Directory_Controller.IS.Unblock::total      7924642                      
system.ruby.Directory_Controller.IS.Memory_Data |     7924633    100.00%    100.00% |           9      0.00%    100.00%
system.ruby.Directory_Controller.IS.Memory_Data::total      7924642                      
system.ruby.Directory_Controller.IS.Memory_Ack |        1444    100.00%    100.00% |           0      0.00%    100.00%
system.ruby.Directory_Controller.IS.Memory_Ack::total         1444                      
system.ruby.Directory_Controller.SS.GETX |           4    100.00%    100.00% |           0      0.00%    100.00%
system.ruby.Directory_Controller.SS.GETX::total            4                      
system.ruby.Directory_Controller.SS.Last_Unblock |    17654442    100.00%    100.00% |           0      0.00%    100.00%
system.ruby.Directory_Controller.SS.Last_Unblock::total     17654442                      
system.ruby.Directory_Controller.SS.Memory_Data |    17654443    100.00%    100.00% |           0      0.00%    100.00%
system.ruby.Directory_Controller.SS.Memory_Data::total     17654443                      
system.ruby.Directory_Controller.MM.Exclusive_Unblock |    16644333    100.00%    100.00% |           0      0.00%    100.00%
system.ruby.Directory_Controller.MM.Exclusive_Unblock::total     16644333                      
system.ruby.Directory_Controller.MM.Memory_Data |    16644333    100.00%    100.00% |           0      0.00%    100.00%
system.ruby.Directory_Controller.MM.Memory_Data::total     16644333                      
system.ruby.Directory_Controller.MM.Memory_Ack |        2452    100.00%    100.00% |           0      0.00%    100.00%
system.ruby.Directory_Controller.MM.Memory_Ack::total         2452                      
system.ruby.Directory_Controller.MI.GETX |          12    100.00%    100.00% |           0      0.00%    100.00%
system.ruby.Directory_Controller.MI.GETX::total           12                      
system.ruby.Directory_Controller.MI.Dirty_Writeback |    16642306    100.00%    100.00% |           0      0.00%    100.00%
system.ruby.Directory_Controller.MI.Dirty_Writeback::total     16642306                      
system.ruby.Directory_Controller.XI_M.Memory_Data |       11107    100.00%    100.00% |           0      0.00%    100.00%
system.ruby.Directory_Controller.XI_M.Memory_Data::total        11107                      
system.ruby.Directory_Controller.XI_U.Exclusive_Unblock |      465512    100.00%    100.00% |           0      0.00%    100.00%
system.ruby.Directory_Controller.XI_U.Exclusive_Unblock::total       465512                      
system.ruby.Directory_Controller.XI_U.Memory_Ack |      447698    100.00%    100.00% |           0      0.00%    100.00%
system.ruby.Directory_Controller.XI_U.Memory_Ack::total       447698                      
system.ruby.Directory_Controller.OI_D.Data |         678    100.00%    100.00% |           0      0.00%    100.00%
system.ruby.Directory_Controller.OI_D.Data::total          678                      
system.ruby.Directory_Controller.MD.DMA_ACK |        5493    100.00%    100.00% |           0      0.00%    100.00%
system.ruby.Directory_Controller.MD.DMA_ACK::total         5493                      
system.ruby.DMA_Controller.ReadRequest   |           0      0.00%      0.00% |     4266537    100.00%    100.00% |           0      0.00%    100.00%
system.ruby.DMA_Controller.ReadRequest::total      4266537                      
system.ruby.DMA_Controller.WriteRequest  |           0      0.00%      0.00% |    14312930    100.00%    100.00% |           0      0.00%    100.00%
system.ruby.DMA_Controller.WriteRequest::total     14312930                      
system.ruby.DMA_Controller.Data          |           0      0.00%      0.00% |      143864    100.00%    100.00% |           0      0.00%    100.00%
system.ruby.DMA_Controller.Data::total         143864                      
system.ruby.DMA_Controller.DMA_Ack       |           0      0.00%      0.00% |      465512    100.00%    100.00% |           0      0.00%    100.00%
system.ruby.DMA_Controller.DMA_Ack::total       465512                      
system.ruby.DMA_Controller.Inv_Ack       |           0      0.00%      0.00% |       12785    100.00%    100.00% |           0      0.00%    100.00%
system.ruby.DMA_Controller.Inv_Ack::total        12785                      
system.ruby.DMA_Controller.All_Acks      |           0      0.00%      0.00% |      465512    100.00%    100.00% |           0      0.00%    100.00%
system.ruby.DMA_Controller.All_Acks::total       465512                      
system.ruby.DMA_Controller.READY.ReadRequest |           0      0.00%      0.00% |      143864    100.00%    100.00% |           0      0.00%    100.00%
system.ruby.DMA_Controller.READY.ReadRequest::total       143864                      
system.ruby.DMA_Controller.READY.WriteRequest |           0      0.00%      0.00% |      465512    100.00%    100.00% |           0      0.00%    100.00%
system.ruby.DMA_Controller.READY.WriteRequest::total       465512                      
system.ruby.DMA_Controller.BUSY_RD.ReadRequest |           0      0.00%      0.00% |     4122673    100.00%    100.00% |           0      0.00%    100.00%
system.ruby.DMA_Controller.BUSY_RD.ReadRequest::total      4122673                      
system.ruby.DMA_Controller.BUSY_RD.Data  |           0      0.00%      0.00% |      143864    100.00%    100.00% |           0      0.00%    100.00%
system.ruby.DMA_Controller.BUSY_RD.Data::total       143864                      
system.ruby.DMA_Controller.BUSY_WR.WriteRequest |           0      0.00%      0.00% |    13847418    100.00%    100.00% |           0      0.00%    100.00%
system.ruby.DMA_Controller.BUSY_WR.WriteRequest::total     13847418                      
system.ruby.DMA_Controller.BUSY_WR.DMA_Ack |           0      0.00%      0.00% |      465512    100.00%    100.00% |           0      0.00%    100.00%
system.ruby.DMA_Controller.BUSY_WR.DMA_Ack::total       465512                      
system.ruby.DMA_Controller.BUSY_WR.Inv_Ack |           0      0.00%      0.00% |       12785    100.00%    100.00% |           0      0.00%    100.00%
system.ruby.DMA_Controller.BUSY_WR.Inv_Ack::total        12785                      
system.ruby.DMA_Controller.BUSY_WR.All_Acks |           0      0.00%      0.00% |      465512    100.00%    100.00% |           0      0.00%    100.00%
system.ruby.DMA_Controller.BUSY_WR.All_Acks::total       465512                      
system.ruby.L1Cache_Controller.Load        1601045621      0.00%      0.00%
system.ruby.L1Cache_Controller.Ifetch    18446744072164397056      0.00%      0.00%
system.ruby.L1Cache_Controller.Store        578146800      0.00%      0.00%
system.ruby.L1Cache_Controller.L1_Replacement     96873178      0.00%      0.00%
system.ruby.L1Cache_Controller.Fwd_GETX           341      0.00%      0.00%
system.ruby.L1Cache_Controller.Fwd_DMA           2044      0.00%      0.00%
system.ruby.L1Cache_Controller.Inv                 35      0.00%      0.00%
system.ruby.L1Cache_Controller.Data          58060063      0.00%      0.00%
system.ruby.L1Cache_Controller.Exclusive_Data     42989386      0.00%      0.00%
system.ruby.L1Cache_Controller.Writeback_Ack     31546055      0.00%      0.00%
system.ruby.L1Cache_Controller.Writeback_Ack_Data     64654774      0.00%      0.00%
system.ruby.L1Cache_Controller.All_acks      30537661      0.00%      0.00%
system.ruby.L1Cache_Controller.Use_Timeout     42989386      0.00%      0.00%
system.ruby.L1Cache_Controller.I.Load        30974703      0.00%      0.00%
system.ruby.L1Cache_Controller.I.Ifetch      39537086      0.00%      0.00%
system.ruby.L1Cache_Controller.I.Store       25690692      0.00%      0.00%
system.ruby.L1Cache_Controller.I.L1_Replacement          354      0.00%      0.00%
system.ruby.L1Cache_Controller.S.Load       389881519      0.00%      0.00%
system.ruby.L1Cache_Controller.S.Ifetch  18446744072124268544      0.00%      0.00%
system.ruby.L1Cache_Controller.S.Store        4846969      0.00%      0.00%
system.ruby.L1Cache_Controller.S.L1_Replacement     53212479      0.00%      0.00%
system.ruby.L1Cache_Controller.S.Inv               35      0.00%      0.00%
system.ruby.L1Cache_Controller.M.Load       126271285      0.00%      0.00%
system.ruby.L1Cache_Controller.M.Ifetch           170      0.00%      0.00%
system.ruby.L1Cache_Controller.M.Store        1113577      0.00%      0.00%
system.ruby.L1Cache_Controller.M.L1_Replacement      9980624      0.00%      0.00%
system.ruby.L1Cache_Controller.M.Fwd_GETX            7      0.00%      0.00%
system.ruby.L1Cache_Controller.M_W.Load      21023463      0.00%      0.00%
system.ruby.L1Cache_Controller.M_W.Ifetch          142      0.00%      0.00%
system.ruby.L1Cache_Controller.M_W.Store      1357487      0.00%      0.00%
system.ruby.L1Cache_Controller.M_W.L1_Replacement       128167      0.00%      0.00%
system.ruby.L1Cache_Controller.M_W.Use_Timeout     11094238      0.00%      0.00%
system.ruby.L1Cache_Controller.MM.Load     1028266950      0.00%      0.00%
system.ruby.L1Cache_Controller.MM.Store     502475339      0.00%      0.00%
system.ruby.L1Cache_Controller.MM.L1_Replacement     33007727      0.00%      0.00%
system.ruby.L1Cache_Controller.MM.Fwd_GETX          334      0.00%      0.00%
system.ruby.L1Cache_Controller.MM.Fwd_DMA         2044      0.00%      0.00%
system.ruby.L1Cache_Controller.MM_W.Load      4046338      0.00%      0.00%
system.ruby.L1Cache_Controller.MM_W.Store     42618996      0.00%      0.00%
system.ruby.L1Cache_Controller.MM_W.L1_Replacement       221664      0.00%      0.00%
system.ruby.L1Cache_Controller.MM_W.Use_Timeout     31895148      0.00%      0.00%
system.ruby.L1Cache_Controller.IM.L1_Replacement        68598      0.00%      0.00%
system.ruby.L1Cache_Controller.IM.Exclusive_Data     25690692      0.00%      0.00%
system.ruby.L1Cache_Controller.SM.L1_Replacement        89232      0.00%      0.00%
system.ruby.L1Cache_Controller.SM.Exclusive_Data      4846969      0.00%      0.00%
system.ruby.L1Cache_Controller.OM.L1_Replacement         1793      0.00%      0.00%
system.ruby.L1Cache_Controller.OM.All_acks     30537661      0.00%      0.00%
system.ruby.L1Cache_Controller.IS.L1_Replacement       162540      0.00%      0.00%
system.ruby.L1Cache_Controller.IS.Data       58060063      0.00%      0.00%
system.ruby.L1Cache_Controller.IS.Exclusive_Data     12451725      0.00%      0.00%
system.ruby.L1Cache_Controller.SI.Load         486997      0.00%      0.00%
system.ruby.L1Cache_Controller.SI.Ifetch       592990      0.00%      0.00%
system.ruby.L1Cache_Controller.SI.Store         12967      0.00%      0.00%
system.ruby.L1Cache_Controller.SI.Writeback_Ack     31546055      0.00%      0.00%
system.ruby.L1Cache_Controller.SI.Writeback_Ack_Data     21666423      0.00%      0.00%
system.ruby.L1Cache_Controller.MI.Load          94366      0.00%      0.00%
system.ruby.L1Cache_Controller.MI.Ifetch           71      0.00%      0.00%
system.ruby.L1Cache_Controller.MI.Store         30773      0.00%      0.00%
system.ruby.L1Cache_Controller.MI.Writeback_Ack_Data     42988351      0.00%      0.00%
system.ruby.L2Cache_Controller.L1_GETS       70515339      0.00%      0.00%
system.ruby.L2Cache_Controller.L1_GETX       30545528      0.00%      0.00%
system.ruby.L2Cache_Controller.L1_PUTX       42988351      0.00%      0.00%
system.ruby.L2Cache_Controller.L1_PUTS_only     53212479      0.00%      0.00%
system.ruby.L2Cache_Controller.L1_PUTS             25      0.00%      0.00%
system.ruby.L2Cache_Controller.Fwd_GETX           678      0.00%      0.00%
system.ruby.L2Cache_Controller.Fwd_DMA           5579      0.00%      0.00%
system.ruby.L2Cache_Controller.Inv              12785      0.00%      0.00%
system.ruby.L2Cache_Controller.IntAck              35      0.00%      0.00%
system.ruby.L2Cache_Controller.All_Acks      16644368      0.00%      0.00%
system.ruby.L2Cache_Controller.Data          42223418      0.00%      0.00%
system.ruby.L2Cache_Controller.Data_Exclusive          341      0.00%      0.00%
system.ruby.L2Cache_Controller.L1_WBCLEANDATA     21666423      0.00%      0.00%
system.ruby.L2Cache_Controller.L1_WBDIRTYDATA     42988351      0.00%      0.00%
system.ruby.L2Cache_Controller.Writeback_Ack     16642306      0.00%      0.00%
system.ruby.L2Cache_Controller.Unblock       89606118      0.00%      0.00%
system.ruby.L2Cache_Controller.Exclusive_Unblock     42989386      0.00%      0.00%
system.ruby.L2Cache_Controller.DmaAck            2044      0.00%      0.00%
system.ruby.L2Cache_Controller.L2_Replacement     38079828      0.00%      0.00%
system.ruby.L2Cache_Controller.NP.L1_GETS     25579007      0.00%      0.00%
system.ruby.L2Cache_Controller.NP.L1_GETX     11737311      0.00%      0.00%
system.ruby.L2Cache_Controller.NP.Inv           12712      0.00%      0.00%
system.ruby.L2Cache_Controller.I.L1_GETS           79      0.00%      0.00%
system.ruby.L2Cache_Controller.ILS.L1_GETX      4678345      0.00%      0.00%
system.ruby.L2Cache_Controller.ILS.L1_PUTS_only     21666423      0.00%      0.00%
system.ruby.L2Cache_Controller.ILS.Inv             34      0.00%      0.00%
system.ruby.L2Cache_Controller.ILX.L1_PUTX     42988351      0.00%      0.00%
system.ruby.L2Cache_Controller.ILX.Fwd_GETX          341      0.00%      0.00%
system.ruby.L2Cache_Controller.ILX.Fwd_DMA         2044      0.00%      0.00%
system.ruby.L2Cache_Controller.S.L1_GETS     32480978      0.00%      0.00%
system.ruby.L2Cache_Controller.S.L1_GETX        60053      0.00%      0.00%
system.ruby.L2Cache_Controller.S.Inv               38      0.00%      0.00%
system.ruby.L2Cache_Controller.S.L2_Replacement     20670212      0.00%      0.00%
system.ruby.L2Cache_Controller.SLS.L1_GETX       168624      0.00%      0.00%
system.ruby.L2Cache_Controller.SLS.L1_PUTS_only     31546056      0.00%      0.00%
system.ruby.L2Cache_Controller.SLS.Inv              1      0.00%      0.00%
system.ruby.L2Cache_Controller.SLS.L2_Replacement       766105      0.00%      0.00%
system.ruby.L2Cache_Controller.M.L1_GETS     12451725      0.00%      0.00%
system.ruby.L2Cache_Controller.M.L1_GETX     13893328      0.00%      0.00%
system.ruby.L2Cache_Controller.M.Fwd_GETX          337      0.00%      0.00%
system.ruby.L2Cache_Controller.M.Fwd_DMA         3449      0.00%      0.00%
system.ruby.L2Cache_Controller.M.L2_Replacement     16642306      0.00%      0.00%
system.ruby.L2Cache_Controller.IFGX.Data_Exclusive          341      0.00%      0.00%
system.ruby.L2Cache_Controller.IW.L1_GETS          384      0.00%      0.00%
system.ruby.L2Cache_Controller.IW.L1_WBCLEANDATA     21666423      0.00%      0.00%
system.ruby.L2Cache_Controller.SW.L1_GETS         2032      0.00%      0.00%
system.ruby.L2Cache_Controller.SW.L1_GETX           11      0.00%      0.00%
system.ruby.L2Cache_Controller.SW.Unblock     31546055      0.00%      0.00%
system.ruby.L2Cache_Controller.SW.L2_Replacement         1205      0.00%      0.00%
system.ruby.L2Cache_Controller.ILXW.L1_GETS           79      0.00%      0.00%
system.ruby.L2Cache_Controller.ILXW.L1_GETX         1087      0.00%      0.00%
system.ruby.L2Cache_Controller.ILXW.Fwd_DMA           86      0.00%      0.00%
system.ruby.L2Cache_Controller.ILXW.L1_WBDIRTYDATA     42988351      0.00%      0.00%
system.ruby.L2Cache_Controller.IGS.L1_GETX          172      0.00%      0.00%
system.ruby.L2Cache_Controller.IGS.Data      25579085      0.00%      0.00%
system.ruby.L2Cache_Controller.IGS.Unblock     25579085      0.00%      0.00%
system.ruby.L2Cache_Controller.IGM.Data      11797364      0.00%      0.00%
system.ruby.L2Cache_Controller.IGMLS.Data      4846969      0.00%      0.00%
system.ruby.L2Cache_Controller.IGMO.All_Acks     16644333      0.00%      0.00%
system.ruby.L2Cache_Controller.IGMO.Exclusive_Unblock     16644333      0.00%      0.00%
system.ruby.L2Cache_Controller.II.IntAck           35      0.00%      0.00%
system.ruby.L2Cache_Controller.II.All_Acks           35      0.00%      0.00%
system.ruby.L2Cache_Controller.MM.Exclusive_Unblock     13893328      0.00%      0.00%
system.ruby.L2Cache_Controller.SS.L1_GETX          213      0.00%      0.00%
system.ruby.L2Cache_Controller.SS.L1_PUTS           25      0.00%      0.00%
system.ruby.L2Cache_Controller.SS.Unblock     32480978      0.00%      0.00%
system.ruby.L2Cache_Controller.OO.Exclusive_Unblock     12451725      0.00%      0.00%
system.ruby.L2Cache_Controller.MI.L1_GETS         1055      0.00%      0.00%
system.ruby.L2Cache_Controller.MI.L1_GETX         6384      0.00%      0.00%
system.ruby.L2Cache_Controller.MI.Writeback_Ack     16642306      0.00%      0.00%
system.ruby.L2Cache_Controller.ILXD.DmaAck         2044      0.00%      0.00%

---------- End Simulation Statistics   ----------