
---------- Begin Simulation Statistics ----------
sim_seconds                                542.142016                       # Number of seconds simulated
sim_ticks                                542142015627500                       # Number of ticks simulated
final_tick                               542142015627500                       # Number of ticks from beginning of simulation (restored from checkpoints and never reset)
sim_freq                                 1000000000000                       # Frequency of simulated ticks
host_inst_rate                                 149411                       # Simulator instruction rate (inst/s)
host_op_rate                                   159219                       # Simulator op (including micro ops) rate (op/s)
host_tick_rate                            11573117180                       # Simulator tick rate (ticks/s)
host_mem_usage                                2688844                       # Number of bytes of host memory used
host_seconds                                 46844.94                       # Real time elapsed on the host
sim_insts                                  6999169086                       # Number of instructions simulated
sim_ops                                    7458603010                       # Number of ops (including micro ops) simulated
system.voltage_domain.voltage                       1                       # Voltage in Volts
system.clk_domain.clock                          1000                       # Clock period in ticks
system.bootmem.pwrStateResidencyTicks::UNDEFINED 542142015627500                       # Cumulative time (in ticks) in various power states
system.bootmem.bytes_read::ruby.network.ext_links3.ext_node          576                       # Number of bytes read from this memory
system.bootmem.bytes_read::total                  576                       # Number of bytes read from this memory
system.bootmem.num_reads::ruby.network.ext_links3.ext_node            9                       # Number of read requests responded to by this memory
system.bootmem.num_reads::total                     9                       # Number of read requests responded to by this memory
system.bootmem.bw_read::ruby.network.ext_links3.ext_node            1                       # Total read bandwidth from this memory (bytes/s)
system.bootmem.bw_read::total                       1                       # Total read bandwidth from this memory (bytes/s)
system.bootmem.bw_total::ruby.network.ext_links3.ext_node            1                       # Total bandwidth to/from this memory (bytes/s)
system.bootmem.bw_total::total                      1                       # Total bandwidth to/from this memory (bytes/s)
system.mem_ctrls.pwrStateResidencyTicks::UNDEFINED 542142015627500                       # Cumulative time (in ticks) in various power states
system.mem_ctrls.bytes_read::ruby.dir_cntrl0   2282647232                       # Number of bytes read from this memory
system.mem_ctrls.bytes_read::total         2282647232                       # Number of bytes read from this memory
system.mem_ctrls.bytes_written::ruby.dir_cntrl0   1022282752                       # Number of bytes written to this memory
system.mem_ctrls.bytes_written::total      1022282752                       # Number of bytes written to this memory
system.mem_ctrls.num_reads::ruby.dir_cntrl0     35666363                       # Number of read requests responded to by this memory
system.mem_ctrls.num_reads::total            35666363                       # Number of read requests responded to by this memory
system.mem_ctrls.num_writes::ruby.dir_cntrl0     15973168                       # Number of write requests responded to by this memory
system.mem_ctrls.num_writes::total           15973168                       # Number of write requests responded to by this memory
system.mem_ctrls.bw_read::ruby.dir_cntrl0      4210423                       # Total read bandwidth from this memory (bytes/s)
system.mem_ctrls.bw_read::total               4210423                       # Total read bandwidth from this memory (bytes/s)
system.mem_ctrls.bw_write::ruby.dir_cntrl0      1885636                       # Write bandwidth from this memory (bytes/s)
system.mem_ctrls.bw_write::total              1885636                       # Write bandwidth from this memory (bytes/s)
system.mem_ctrls.bw_total::ruby.dir_cntrl0      6096059                       # Total bandwidth to/from this memory (bytes/s)
system.mem_ctrls.bw_total::total              6096059                       # Total bandwidth to/from this memory (bytes/s)
system.mem_ctrls.readReqs                    35666363                       # Number of read requests accepted
system.mem_ctrls.writeReqs                   15973168                       # Number of write requests accepted
system.mem_ctrls.readBursts                  35666363                       # Number of DRAM read bursts, including those serviced by the write queue
system.mem_ctrls.writeBursts                 15973168                       # Number of DRAM write bursts, including those merged in the write queue
system.mem_ctrls.bytesReadDRAM             2224911680                       # Total number of bytes read from DRAM
system.mem_ctrls.bytesReadWrQ                57735552                       # Total number of bytes read from write queue
system.mem_ctrls.bytesWritten              1022240640                       # Total number of bytes written to DRAM
system.mem_ctrls.bytesReadSys              2282647232                       # Total read bytes from the system interface side
system.mem_ctrls.bytesWrittenSys           1022282752                       # Total written bytes from the system interface side
system.mem_ctrls.servicedByWrQ                 902118                       # Number of DRAM read bursts serviced by the write queue
system.mem_ctrls.mergedWrBursts                   641                       # Number of DRAM write bursts merged with an existing one
system.mem_ctrls.neitherReadNorWriteReqs            0                       # Number of requests that are neither read nor write
system.mem_ctrls.perBankRdBursts::0           2351566                       # Per bank write bursts
system.mem_ctrls.perBankRdBursts::1           2098769                       # Per bank write bursts
system.mem_ctrls.perBankRdBursts::2           2253819                       # Per bank write bursts
system.mem_ctrls.perBankRdBursts::3           2285987                       # Per bank write bursts
system.mem_ctrls.perBankRdBursts::4           1932465                       # Per bank write bursts
system.mem_ctrls.perBankRdBursts::5           1991081                       # Per bank write bursts
system.mem_ctrls.perBankRdBursts::6           2313966                       # Per bank write bursts
system.mem_ctrls.perBankRdBursts::7           2405220                       # Per bank write bursts
system.mem_ctrls.perBankRdBursts::8           1828920                       # Per bank write bursts
system.mem_ctrls.perBankRdBursts::9           2119342                       # Per bank write bursts
system.mem_ctrls.perBankRdBursts::10          2268825                       # Per bank write bursts
system.mem_ctrls.perBankRdBursts::11          2472430                       # Per bank write bursts
system.mem_ctrls.perBankRdBursts::12          2185148                       # Per bank write bursts
system.mem_ctrls.perBankRdBursts::13          1814837                       # Per bank write bursts
system.mem_ctrls.perBankRdBursts::14          2378678                       # Per bank write bursts
system.mem_ctrls.perBankRdBursts::15          2063192                       # Per bank write bursts
system.mem_ctrls.perBankWrBursts::0           1008304                       # Per bank write bursts
system.mem_ctrls.perBankWrBursts::1            980428                       # Per bank write bursts
system.mem_ctrls.perBankWrBursts::2           1073285                       # Per bank write bursts
system.mem_ctrls.perBankWrBursts::3           1184803                       # Per bank write bursts
system.mem_ctrls.perBankWrBursts::4            835826                       # Per bank write bursts
system.mem_ctrls.perBankWrBursts::5            772182                       # Per bank write bursts
system.mem_ctrls.perBankWrBursts::6           1095224                       # Per bank write bursts
system.mem_ctrls.perBankWrBursts::7           1360791                       # Per bank write bursts
system.mem_ctrls.perBankWrBursts::8            787096                       # Per bank write bursts
system.mem_ctrls.perBankWrBursts::9            832115                       # Per bank write bursts
system.mem_ctrls.perBankWrBursts::10          1082381                       # Per bank write bursts
system.mem_ctrls.perBankWrBursts::11          1243662                       # Per bank write bursts
system.mem_ctrls.perBankWrBursts::12           822458                       # Per bank write bursts
system.mem_ctrls.perBankWrBursts::13           747105                       # Per bank write bursts
system.mem_ctrls.perBankWrBursts::14          1040779                       # Per bank write bursts
system.mem_ctrls.perBankWrBursts::15          1106071                       # Per bank write bursts
system.mem_ctrls.numRdRetry                         0                       # Number of times read queue was full causing retry
system.mem_ctrls.numWrRetry                      1325                       # Number of times write queue was full causing retry
system.mem_ctrls.totGap                  542142015031000                       # Total gap between requests
system.mem_ctrls.readPktSize::0                     0                       # Read request sizes (log2)
system.mem_ctrls.readPktSize::1                     0                       # Read request sizes (log2)
system.mem_ctrls.readPktSize::2                     0                       # Read request sizes (log2)
system.mem_ctrls.readPktSize::3                     0                       # Read request sizes (log2)
system.mem_ctrls.readPktSize::4                     0                       # Read request sizes (log2)
system.mem_ctrls.readPktSize::5                     0                       # Read request sizes (log2)
system.mem_ctrls.readPktSize::6              35666363                       # Read request sizes (log2)
system.mem_ctrls.writePktSize::0                    0                       # Write request sizes (log2)
system.mem_ctrls.writePktSize::1                    0                       # Write request sizes (log2)
system.mem_ctrls.writePktSize::2                    0                       # Write request sizes (log2)
system.mem_ctrls.writePktSize::3                    0                       # Write request sizes (log2)
system.mem_ctrls.writePktSize::4                    0                       # Write request sizes (log2)
system.mem_ctrls.writePktSize::5                    0                       # Write request sizes (log2)
system.mem_ctrls.writePktSize::6             15973168                       # Write request sizes (log2)
system.mem_ctrls.rdQLenPdf::0                19901995                       # What read queue length does an incoming req see
system.mem_ctrls.rdQLenPdf::1                 7041666                       # What read queue length does an incoming req see
system.mem_ctrls.rdQLenPdf::2                 1833675                       # What read queue length does an incoming req see
system.mem_ctrls.rdQLenPdf::3                  913643                       # What read queue length does an incoming req see
system.mem_ctrls.rdQLenPdf::4                  605389                       # What read queue length does an incoming req see
system.mem_ctrls.rdQLenPdf::5                  589205                       # What read queue length does an incoming req see
system.mem_ctrls.rdQLenPdf::6                  696581                       # What read queue length does an incoming req see
system.mem_ctrls.rdQLenPdf::7                  841782                       # What read queue length does an incoming req see
system.mem_ctrls.rdQLenPdf::8                  344532                       # What read queue length does an incoming req see
system.mem_ctrls.rdQLenPdf::9                  336556                       # What read queue length does an incoming req see
system.mem_ctrls.rdQLenPdf::10                 340510                       # What read queue length does an incoming req see
system.mem_ctrls.rdQLenPdf::11                 335135                       # What read queue length does an incoming req see
system.mem_ctrls.rdQLenPdf::12                 321583                       # What read queue length does an incoming req see
system.mem_ctrls.rdQLenPdf::13                 287418                       # What read queue length does an incoming req see
system.mem_ctrls.rdQLenPdf::14                 191640                       # What read queue length does an incoming req see
system.mem_ctrls.rdQLenPdf::15                 182935                       # What read queue length does an incoming req see
system.mem_ctrls.rdQLenPdf::16                      0                       # What read queue length does an incoming req see
system.mem_ctrls.rdQLenPdf::17                      0                       # What read queue length does an incoming req see
system.mem_ctrls.rdQLenPdf::18                      0                       # What read queue length does an incoming req see
system.mem_ctrls.rdQLenPdf::19                      0                       # What read queue length does an incoming req see
system.mem_ctrls.rdQLenPdf::20                      0                       # What read queue length does an incoming req see
system.mem_ctrls.rdQLenPdf::21                      0                       # What read queue length does an incoming req see
system.mem_ctrls.rdQLenPdf::22                      0                       # What read queue length does an incoming req see
system.mem_ctrls.rdQLenPdf::23                      0                       # What read queue length does an incoming req see
system.mem_ctrls.rdQLenPdf::24                      0                       # What read queue length does an incoming req see
system.mem_ctrls.rdQLenPdf::25                      0                       # What read queue length does an incoming req see
system.mem_ctrls.rdQLenPdf::26                      0                       # What read queue length does an incoming req see
system.mem_ctrls.rdQLenPdf::27                      0                       # What read queue length does an incoming req see
system.mem_ctrls.rdQLenPdf::28                      0                       # What read queue length does an incoming req see
system.mem_ctrls.rdQLenPdf::29                      0                       # What read queue length does an incoming req see
system.mem_ctrls.rdQLenPdf::30                      0                       # What read queue length does an incoming req see
system.mem_ctrls.rdQLenPdf::31                      0                       # What read queue length does an incoming req see
system.mem_ctrls.wrQLenPdf::0                       1                       # What write queue length does an incoming req see
system.mem_ctrls.wrQLenPdf::1                       1                       # What write queue length does an incoming req see
system.mem_ctrls.wrQLenPdf::2                       1                       # What write queue length does an incoming req see
system.mem_ctrls.wrQLenPdf::3                       1                       # What write queue length does an incoming req see
system.mem_ctrls.wrQLenPdf::4                       1                       # What write queue length does an incoming req see
system.mem_ctrls.wrQLenPdf::5                       1                       # What write queue length does an incoming req see
system.mem_ctrls.wrQLenPdf::6                       1                       # What write queue length does an incoming req see
system.mem_ctrls.wrQLenPdf::7                       1                       # What write queue length does an incoming req see
system.mem_ctrls.wrQLenPdf::8                       1                       # What write queue length does an incoming req see
system.mem_ctrls.wrQLenPdf::9                       1                       # What write queue length does an incoming req see
system.mem_ctrls.wrQLenPdf::10                      1                       # What write queue length does an incoming req see
system.mem_ctrls.wrQLenPdf::11                      1                       # What write queue length does an incoming req see
system.mem_ctrls.wrQLenPdf::12                      1                       # What write queue length does an incoming req see
system.mem_ctrls.wrQLenPdf::13                      1                       # What write queue length does an incoming req see
system.mem_ctrls.wrQLenPdf::14                      1                       # What write queue length does an incoming req see
system.mem_ctrls.wrQLenPdf::15                 259316                       # What write queue length does an incoming req see
system.mem_ctrls.wrQLenPdf::16                 306373                       # What write queue length does an incoming req see
system.mem_ctrls.wrQLenPdf::17                 559904                       # What write queue length does an incoming req see
system.mem_ctrls.wrQLenPdf::18                 718360                       # What write queue length does an incoming req see
system.mem_ctrls.wrQLenPdf::19                 767583                       # What write queue length does an incoming req see
system.mem_ctrls.wrQLenPdf::20                 787079                       # What write queue length does an incoming req see
system.mem_ctrls.wrQLenPdf::21                 808962                       # What write queue length does an incoming req see
system.mem_ctrls.wrQLenPdf::22                 828851                       # What write queue length does an incoming req see
system.mem_ctrls.wrQLenPdf::23                 843575                       # What write queue length does an incoming req see
system.mem_ctrls.wrQLenPdf::24                 861406                       # What write queue length does an incoming req see
system.mem_ctrls.wrQLenPdf::25                 874184                       # What write queue length does an incoming req see
system.mem_ctrls.wrQLenPdf::26                 886439                       # What write queue length does an incoming req see
system.mem_ctrls.wrQLenPdf::27                 915468                       # What write queue length does an incoming req see
system.mem_ctrls.wrQLenPdf::28                 963033                       # What write queue length does an incoming req see
system.mem_ctrls.wrQLenPdf::29                 929381                       # What write queue length does an incoming req see
system.mem_ctrls.wrQLenPdf::30                 919612                       # What write queue length does an incoming req see
system.mem_ctrls.wrQLenPdf::31                 923621                       # What write queue length does an incoming req see
system.mem_ctrls.wrQLenPdf::32                 937269                       # What write queue length does an incoming req see
system.mem_ctrls.wrQLenPdf::33                 179243                       # What write queue length does an incoming req see
system.mem_ctrls.wrQLenPdf::34                 191026                       # What write queue length does an incoming req see
system.mem_ctrls.wrQLenPdf::35                 161490                       # What write queue length does an incoming req see
system.mem_ctrls.wrQLenPdf::36                 188278                       # What write queue length does an incoming req see
system.mem_ctrls.wrQLenPdf::37                 182253                       # What write queue length does an incoming req see
system.mem_ctrls.wrQLenPdf::38                 135441                       # What write queue length does an incoming req see
system.mem_ctrls.wrQLenPdf::39                 123422                       # What write queue length does an incoming req see
system.mem_ctrls.wrQLenPdf::40                 117707                       # What write queue length does an incoming req see
system.mem_ctrls.wrQLenPdf::41                 114729                       # What write queue length does an incoming req see
system.mem_ctrls.wrQLenPdf::42                 103160                       # What write queue length does an incoming req see
system.mem_ctrls.wrQLenPdf::43                  81781                       # What write queue length does an incoming req see
system.mem_ctrls.wrQLenPdf::44                  60054                       # What write queue length does an incoming req see
system.mem_ctrls.wrQLenPdf::45                  40785                       # What write queue length does an incoming req see
system.mem_ctrls.wrQLenPdf::46                  33694                       # What write queue length does an incoming req see
system.mem_ctrls.wrQLenPdf::47                  27388                       # What write queue length does an incoming req see
system.mem_ctrls.wrQLenPdf::48                  20586                       # What write queue length does an incoming req see
system.mem_ctrls.wrQLenPdf::49                  21459                       # What write queue length does an incoming req see
system.mem_ctrls.wrQLenPdf::50                  20872                       # What write queue length does an incoming req see
system.mem_ctrls.wrQLenPdf::51                  18561                       # What write queue length does an incoming req see
system.mem_ctrls.wrQLenPdf::52                  14719                       # What write queue length does an incoming req see
system.mem_ctrls.wrQLenPdf::53                  12899                       # What write queue length does an incoming req see
system.mem_ctrls.wrQLenPdf::54                   9746                       # What write queue length does an incoming req see
system.mem_ctrls.wrQLenPdf::55                   8265                       # What write queue length does an incoming req see
system.mem_ctrls.wrQLenPdf::56                   4396                       # What write queue length does an incoming req see
system.mem_ctrls.wrQLenPdf::57                   2658                       # What write queue length does an incoming req see
system.mem_ctrls.wrQLenPdf::58                   1651                       # What write queue length does an incoming req see
system.mem_ctrls.wrQLenPdf::59                   1084                       # What write queue length does an incoming req see
system.mem_ctrls.wrQLenPdf::60                    841                       # What write queue length does an incoming req see
system.mem_ctrls.wrQLenPdf::61                    748                       # What write queue length does an incoming req see
system.mem_ctrls.wrQLenPdf::62                    941                       # What write queue length does an incoming req see
system.mem_ctrls.wrQLenPdf::63                   2219                       # What write queue length does an incoming req see
system.mem_ctrls.bytesPerActivate::samples     14337151                       # Bytes accessed per row activation
system.mem_ctrls.bytesPerActivate::mean    226.485142                       # Bytes accessed per row activation
system.mem_ctrls.bytesPerActivate::gmean   140.316780                       # Bytes accessed per row activation
system.mem_ctrls.bytesPerActivate::stdev   269.852062                       # Bytes accessed per row activation
system.mem_ctrls.bytesPerActivate::0-127      6406203     44.68%     44.68% # Bytes accessed per row activation
system.mem_ctrls.bytesPerActivate::128-255      4125555     28.78%     73.46% # Bytes accessed per row activation
system.mem_ctrls.bytesPerActivate::256-383      1304273      9.10%     82.55% # Bytes accessed per row activation
system.mem_ctrls.bytesPerActivate::384-511       617203      4.30%     86.86% # Bytes accessed per row activation
system.mem_ctrls.bytesPerActivate::512-639       371980      2.59%     89.45% # Bytes accessed per row activation
system.mem_ctrls.bytesPerActivate::640-767       241501      1.68%     91.14% # Bytes accessed per row activation
system.mem_ctrls.bytesPerActivate::768-895       168740      1.18%     92.32% # Bytes accessed per row activation
system.mem_ctrls.bytesPerActivate::896-1023       136812      0.95%     93.27% # Bytes accessed per row activation
system.mem_ctrls.bytesPerActivate::1024-1151       964884      6.73%    100.00% # Bytes accessed per row activation
system.mem_ctrls.bytesPerActivate::total     14337151                       # Bytes accessed per row activation
system.mem_ctrls.rdPerTurnAround::samples       940903                       # Reads before turning the bus around for writes
system.mem_ctrls.rdPerTurnAround::mean      36.947739                       # Reads before turning the bus around for writes
system.mem_ctrls.rdPerTurnAround::stdev     35.489567                       # Reads before turning the bus around for writes
system.mem_ctrls.rdPerTurnAround::0-255        939640     99.87%     99.87% # Reads before turning the bus around for writes
system.mem_ctrls.rdPerTurnAround::256-511          918      0.10%     99.96% # Reads before turning the bus around for writes
system.mem_ctrls.rdPerTurnAround::512-767          200      0.02%     99.98% # Reads before turning the bus around for writes
system.mem_ctrls.rdPerTurnAround::768-1023           78      0.01%     99.99% # Reads before turning the bus around for writes
system.mem_ctrls.rdPerTurnAround::1024-1279           26      0.00%    100.00% # Reads before turning the bus around for writes
system.mem_ctrls.rdPerTurnAround::1280-1535           14      0.00%    100.00% # Reads before turning the bus around for writes
system.mem_ctrls.rdPerTurnAround::1536-1791            8      0.00%    100.00% # Reads before turning the bus around for writes
system.mem_ctrls.rdPerTurnAround::1792-2047            6      0.00%    100.00% # Reads before turning the bus around for writes
system.mem_ctrls.rdPerTurnAround::2048-2303            1      0.00%    100.00% # Reads before turning the bus around for writes
system.mem_ctrls.rdPerTurnAround::2304-2559            3      0.00%    100.00% # Reads before turning the bus around for writes
system.mem_ctrls.rdPerTurnAround::2816-3071            2      0.00%    100.00% # Reads before turning the bus around for writes
system.mem_ctrls.rdPerTurnAround::3072-3327            1      0.00%    100.00% # Reads before turning the bus around for writes
system.mem_ctrls.rdPerTurnAround::3584-3839            3      0.00%    100.00% # Reads before turning the bus around for writes
system.mem_ctrls.rdPerTurnAround::3840-4095            2      0.00%    100.00% # Reads before turning the bus around for writes
system.mem_ctrls.rdPerTurnAround::4352-4607            1      0.00%    100.00% # Reads before turning the bus around for writes
system.mem_ctrls.rdPerTurnAround::total        940903                       # Reads before turning the bus around for writes
system.mem_ctrls.wrPerTurnAround::samples       940903                       # Writes before turning the bus around for reads
system.mem_ctrls.wrPerTurnAround::mean      16.975724                       # Writes before turning the bus around for reads
system.mem_ctrls.wrPerTurnAround::gmean     16.867073                       # Writes before turning the bus around for reads
system.mem_ctrls.wrPerTurnAround::stdev      2.365147                       # Writes before turning the bus around for reads
system.mem_ctrls.wrPerTurnAround::16-17        666363     70.82%     70.82% # Writes before turning the bus around for reads
system.mem_ctrls.wrPerTurnAround::18-19        225460     23.96%     94.78% # Writes before turning the bus around for reads
system.mem_ctrls.wrPerTurnAround::20-21         26684      2.84%     97.62% # Writes before turning the bus around for reads
system.mem_ctrls.wrPerTurnAround::22-23          7413      0.79%     98.41% # Writes before turning the bus around for reads
system.mem_ctrls.wrPerTurnAround::24-25          3304      0.35%     98.76% # Writes before turning the bus around for reads
system.mem_ctrls.wrPerTurnAround::26-27          2149      0.23%     98.99% # Writes before turning the bus around for reads
system.mem_ctrls.wrPerTurnAround::28-29          1932      0.21%     99.19% # Writes before turning the bus around for reads
system.mem_ctrls.wrPerTurnAround::30-31          2854      0.30%     99.50% # Writes before turning the bus around for reads
system.mem_ctrls.wrPerTurnAround::32-33          2164      0.23%     99.73% # Writes before turning the bus around for reads
system.mem_ctrls.wrPerTurnAround::34-35           530      0.06%     99.78% # Writes before turning the bus around for reads
system.mem_ctrls.wrPerTurnAround::36-37           981      0.10%     99.89% # Writes before turning the bus around for reads
system.mem_ctrls.wrPerTurnAround::38-39            87      0.01%     99.90% # Writes before turning the bus around for reads
system.mem_ctrls.wrPerTurnAround::40-41            81      0.01%     99.90% # Writes before turning the bus around for reads
system.mem_ctrls.wrPerTurnAround::42-43           297      0.03%     99.94% # Writes before turning the bus around for reads
system.mem_ctrls.wrPerTurnAround::44-45            46      0.00%     99.94% # Writes before turning the bus around for reads
system.mem_ctrls.wrPerTurnAround::46-47            43      0.00%     99.95% # Writes before turning the bus around for reads
system.mem_ctrls.wrPerTurnAround::48-49            73      0.01%     99.95% # Writes before turning the bus around for reads
system.mem_ctrls.wrPerTurnAround::50-51            37      0.00%     99.96% # Writes before turning the bus around for reads
system.mem_ctrls.wrPerTurnAround::52-53            27      0.00%     99.96% # Writes before turning the bus around for reads
system.mem_ctrls.wrPerTurnAround::54-55            27      0.00%     99.96% # Writes before turning the bus around for reads
system.mem_ctrls.wrPerTurnAround::56-57            18      0.00%     99.96% # Writes before turning the bus around for reads
system.mem_ctrls.wrPerTurnAround::58-59            12      0.00%     99.97% # Writes before turning the bus around for reads
system.mem_ctrls.wrPerTurnAround::60-61             9      0.00%     99.97% # Writes before turning the bus around for reads
system.mem_ctrls.wrPerTurnAround::62-63            11      0.00%     99.97% # Writes before turning the bus around for reads
system.mem_ctrls.wrPerTurnAround::64-65            87      0.01%     99.98% # Writes before turning the bus around for reads
system.mem_ctrls.wrPerTurnAround::66-67            61      0.01%     99.98% # Writes before turning the bus around for reads
system.mem_ctrls.wrPerTurnAround::68-69            23      0.00%     99.99% # Writes before turning the bus around for reads
system.mem_ctrls.wrPerTurnAround::70-71            23      0.00%     99.99% # Writes before turning the bus around for reads
system.mem_ctrls.wrPerTurnAround::72-73            14      0.00%     99.99% # Writes before turning the bus around for reads
system.mem_ctrls.wrPerTurnAround::74-75            11      0.00%     99.99% # Writes before turning the bus around for reads
system.mem_ctrls.wrPerTurnAround::76-77            14      0.00%     99.99% # Writes before turning the bus around for reads
system.mem_ctrls.wrPerTurnAround::78-79            10      0.00%     99.99% # Writes before turning the bus around for reads
system.mem_ctrls.wrPerTurnAround::80-81             6      0.00%     99.99% # Writes before turning the bus around for reads
system.mem_ctrls.wrPerTurnAround::82-83            16      0.00%    100.00% # Writes before turning the bus around for reads
system.mem_ctrls.wrPerTurnAround::84-85             3      0.00%    100.00% # Writes before turning the bus around for reads
system.mem_ctrls.wrPerTurnAround::88-89             4      0.00%    100.00% # Writes before turning the bus around for reads
system.mem_ctrls.wrPerTurnAround::90-91            11      0.00%    100.00% # Writes before turning the bus around for reads
system.mem_ctrls.wrPerTurnAround::92-93             1      0.00%    100.00% # Writes before turning the bus around for reads
system.mem_ctrls.wrPerTurnAround::96-97             5      0.00%    100.00% # Writes before turning the bus around for reads
system.mem_ctrls.wrPerTurnAround::98-99             3      0.00%    100.00% # Writes before turning the bus around for reads
system.mem_ctrls.wrPerTurnAround::106-107            8      0.00%    100.00% # Writes before turning the bus around for reads
system.mem_ctrls.wrPerTurnAround::120-121            1      0.00%    100.00% # Writes before turning the bus around for reads
system.mem_ctrls.wrPerTurnAround::total        940903                       # Writes before turning the bus around for reads
system.mem_ctrls.totQLat                 1069516914415                       # Total ticks spent queuing
system.mem_ctrls.totMemAccLat            1721346508165                       # Total ticks spent from burst creation until serviced by the DRAM
system.mem_ctrls.totBusLat               173821225000                       # Total ticks spent in databus transfers
system.mem_ctrls.avgQLat                     30764.85                       # Average queueing delay per DRAM burst
system.mem_ctrls.avgBusLat                    5000.00                       # Average bus latency per DRAM burst
system.mem_ctrls.avgMemAccLat                49514.85                       # Average memory access latency per DRAM burst
system.mem_ctrls.avgRdBW                         4.10                       # Average DRAM read bandwidth in MiByte/s
system.mem_ctrls.avgWrBW                         1.89                       # Average achieved write bandwidth in MiByte/s
system.mem_ctrls.avgRdBWSys                      4.21                       # Average system read bandwidth in MiByte/s
system.mem_ctrls.avgWrBWSys                      1.89                       # Average system write bandwidth in MiByte/s
system.mem_ctrls.peakBW                      12800.00                       # Theoretical peak bandwidth in MiByte/s
system.mem_ctrls.busUtil                         0.05                       # Data bus utilization in percentage
system.mem_ctrls.busUtilRead                     0.03                       # Data bus utilization in percentage for reads
system.mem_ctrls.busUtilWrite                    0.01                       # Data bus utilization in percentage for writes
system.mem_ctrls.avgRdQLen                       1.02                       # Average read queue length when enqueuing
system.mem_ctrls.avgWrQLen                      23.19                       # Average write queue length when enqueuing
system.mem_ctrls.readRowHits                 25953894                       # Number of row buffer hits during reads
system.mem_ctrls.writeRowHits                10445704                       # Number of row buffer hits during writes
system.mem_ctrls.readRowHitRate                 74.66                       # Row buffer hit rate for reads
system.mem_ctrls.writeRowHitRate                65.40                       # Row buffer hit rate for writes
system.mem_ctrls.avgGap                   10498585.18                       # Average gap between requests
system.mem_ctrls.pageHitRate                    71.74                       # Row buffer hit rate, read and write combined
system.mem_ctrls_0.actEnergy              52952246340                       # Energy for activate commands per rank (pJ)
system.mem_ctrls_0.preEnergy              28144763625                       # Energy for precharge commands per rank (pJ)
system.mem_ctrls_0.readEnergy            125898713220                       # Energy for read commands per rank (pJ)
system.mem_ctrls_0.writeEnergy            43382600460                       # Energy for write commands per rank (pJ)
system.mem_ctrls_0.refreshEnergy         304517241600.000061                       # Energy for refresh commands per rank (pJ)
system.mem_ctrls_0.actBackEnergy         444606092730                       # Energy for active background per rank (pJ)
system.mem_ctrls_0.preBackEnergy          14502287040                       # Energy for precharge background per rank (pJ)
system.mem_ctrls_0.actPowerDownEnergy    955681148010                       # Energy for active power-down per rank (pJ)
system.mem_ctrls_0.prePowerDownEnergy    192791060160                       # Energy for precharge power-down per rank (pJ)
system.mem_ctrls_0.selfRefreshEnergy     129266335896000                       # Energy for self refresh per rank (pJ)
system.mem_ctrls_0.totalEnergy           131428867716165                       # Total energy per rank (pJ)
system.mem_ctrls_0.averagePower            242.425165                       # Core power per rank (mW)
system.mem_ctrls_0.totalIdleTime         541129107931186                       # Total Idle time Per DRAM Rank
system.mem_ctrls_0.memoryStateTime::IDLE  22683631498                       # Time in different power states
system.mem_ctrls_0.memoryStateTime::REF  129025024000                       # Time in different power states
system.mem_ctrls_0.memoryStateTime::SREF 538531259705750                       # Time in different power states
system.mem_ctrls_0.memoryStateTime::PRE_PDN 502060179824                       # Time in different power states
system.mem_ctrls_0.memoryStateTime::ACT  861199007566                       # Time in different power states
system.mem_ctrls_0.memoryStateTime::ACT_PDN 2095788078862                       # Time in different power states
system.mem_ctrls_1.actEnergy              49415054640                       # Energy for activate commands per rank (pJ)
system.mem_ctrls_1.preEnergy              26264724420                       # Energy for precharge commands per rank (pJ)
system.mem_ctrls_1.readEnergy            122317996080                       # Energy for read commands per rank (pJ)
system.mem_ctrls_1.writeEnergy            39993901740                       # Energy for write commands per rank (pJ)
system.mem_ctrls_1.refreshEnergy         315393296400.000061                       # Energy for refresh commands per rank (pJ)
system.mem_ctrls_1.actBackEnergy         449667700710                       # Energy for active background per rank (pJ)
system.mem_ctrls_1.preBackEnergy          11317884960                       # Energy for precharge background per rank (pJ)
system.mem_ctrls_1.actPowerDownEnergy    990166157700                       # Energy for active power-down per rank (pJ)
system.mem_ctrls_1.prePowerDownEnergy    209389444800                       # Energy for precharge power-down per rank (pJ)
system.mem_ctrls_1.selfRefreshEnergy     129238365820320                       # Energy for self refresh per rank (pJ)
system.mem_ctrls_1.totalEnergy           131452345942440                       # Total energy per rank (pJ)
system.mem_ctrls_1.averagePower            242.468472                       # Core power per rank (mW)
system.mem_ctrls_1.totalIdleTime         541126307287800                       # Total Idle time Per DRAM Rank
system.mem_ctrls_1.memoryStateTime::IDLE  14025690511                       # Time in different power states
system.mem_ctrls_1.memoryStateTime::REF  133639102750                       # Time in different power states
system.mem_ctrls_1.memoryStateTime::SREF 538409606465500                       # Time in different power states
system.mem_ctrls_1.memoryStateTime::PRE_PDN 545285563322                       # Time in different power states
system.mem_ctrls_1.memoryStateTime::ACT  868043546439                       # Time in different power states
system.mem_ctrls_1.memoryStateTime::ACT_PDN 2171415258978                       # Time in different power states
system.pwrStateResidencyTicks::UNDEFINED 542142015627500                       # Cumulative time (in ticks) in various power states
system.cf0.dma_read_full_pages                    155                       # Number of full page size DMA reads (not PRD).
system.cf0.dma_read_bytes                      634880                       # Number of bytes transfered via DMA reads (not PRD).
system.cf0.dma_read_txs                           155                       # Number of DMA read transactions (not PRD).
system.cf0.dma_write_full_pages                  7272                       # Number of full page size DMA writes.
system.cf0.dma_write_bytes                   29788672                       # Number of bytes transfered via DMA writes.
system.cf0.dma_write_txs                         7275                       # Number of DMA write transactions.
system.cpu.branchPred.lookups              1367349603                       # Number of BP lookups
system.cpu.branchPred.condPredicted        1100041956                       # Number of conditional branches predicted
system.cpu.branchPred.condIncorrect          77751865                       # Number of conditional branches incorrect
system.cpu.branchPred.BTBLookups            856510150                       # Number of BTB lookups
system.cpu.branchPred.BTBHits               630857442                       # Number of BTB hits
system.cpu.branchPred.BTBCorrect                    0                       # Number of correct BTB predictions (this stat may not work properly.
system.cpu.branchPred.BTBHitPct             73.654404                       # BTB Hit Percentage
system.cpu.branchPred.usedRAS                76031493                       # Number of times the RAS was used to get a target.
system.cpu.branchPred.RASInCorrect             304597                       # Number of incorrect RAS predictions.
system.cpu.branchPred.indirectLookups        21837358                       # Number of indirect predictor lookups.
system.cpu.branchPred.indirectHits           16652647                       # Number of indirect target hits.
system.cpu.branchPred.indirectMisses          5184711                       # Number of indirect misses.
system.cpu.branchPredindirectMispredicted      1924822                       # Number of mispredicted indirect branches.
system.cpu_voltage_domain.voltage                   1                       # Voltage in Volts
system.cpu_clk_domain.clock                       500                       # Clock period in ticks
system.cpu.dstage2_mmu.stage2_tlb.walker.pwrStateResidencyTicks::UNDEFINED 542142015627500                       # Cumulative time (in ticks) in various power states
system.cpu.dstage2_mmu.stage2_tlb.walker.walks            0                       # Table walker walks requested
system.cpu.dstage2_mmu.stage2_tlb.walker.walkRequestOrigin_Requested::Data            0                       # Table walker requests started/completed, data/inst
system.cpu.dstage2_mmu.stage2_tlb.walker.walkRequestOrigin_Requested::Inst            0                       # Table walker requests started/completed, data/inst
system.cpu.dstage2_mmu.stage2_tlb.walker.walkRequestOrigin_Requested::total            0                       # Table walker requests started/completed, data/inst
system.cpu.dstage2_mmu.stage2_tlb.walker.walkRequestOrigin_Completed::Data            0                       # Table walker requests started/completed, data/inst
system.cpu.dstage2_mmu.stage2_tlb.walker.walkRequestOrigin_Completed::Inst            0                       # Table walker requests started/completed, data/inst
system.cpu.dstage2_mmu.stage2_tlb.walker.walkRequestOrigin_Completed::total            0                       # Table walker requests started/completed, data/inst
system.cpu.dstage2_mmu.stage2_tlb.walker.walkRequestOrigin::total            0                       # Table walker requests started/completed, data/inst
system.cpu.dstage2_mmu.stage2_tlb.inst_hits            0                       # ITB inst hits
system.cpu.dstage2_mmu.stage2_tlb.inst_misses            0                       # ITB inst misses
system.cpu.dstage2_mmu.stage2_tlb.read_hits            0                       # DTB read hits
system.cpu.dstage2_mmu.stage2_tlb.read_misses            0                       # DTB read misses
system.cpu.dstage2_mmu.stage2_tlb.write_hits            0                       # DTB write hits
system.cpu.dstage2_mmu.stage2_tlb.write_misses            0                       # DTB write misses
system.cpu.dstage2_mmu.stage2_tlb.flush_tlb            0                       # Number of times complete TLB was flushed
system.cpu.dstage2_mmu.stage2_tlb.flush_tlb_mva            0                       # Number of times TLB was flushed by MVA
system.cpu.dstage2_mmu.stage2_tlb.flush_tlb_mva_asid            0                       # Number of times TLB was flushed by MVA & ASID
system.cpu.dstage2_mmu.stage2_tlb.flush_tlb_asid            0                       # Number of times TLB was flushed by ASID
system.cpu.dstage2_mmu.stage2_tlb.flush_entries            0                       # Number of entries that have been flushed from TLB
system.cpu.dstage2_mmu.stage2_tlb.align_faults            0                       # Number of TLB faults due to alignment restrictions
system.cpu.dstage2_mmu.stage2_tlb.prefetch_faults            0                       # Number of TLB faults due to prefetch
system.cpu.dstage2_mmu.stage2_tlb.domain_faults            0                       # Number of TLB faults due to domain restrictions
system.cpu.dstage2_mmu.stage2_tlb.perms_faults            0                       # Number of TLB faults due to permissions restrictions
system.cpu.dstage2_mmu.stage2_tlb.read_accesses            0                       # DTB read accesses
system.cpu.dstage2_mmu.stage2_tlb.write_accesses            0                       # DTB write accesses
system.cpu.dstage2_mmu.stage2_tlb.inst_accesses            0                       # ITB inst accesses
system.cpu.dstage2_mmu.stage2_tlb.hits              0                       # DTB hits
system.cpu.dstage2_mmu.stage2_tlb.misses            0                       # DTB misses
system.cpu.dstage2_mmu.stage2_tlb.accesses            0                       # DTB accesses
system.cpu.dtb.walker.pwrStateResidencyTicks::UNDEFINED 542142015627500                       # Cumulative time (in ticks) in various power states
system.cpu.dtb.walker.walks                   9847116                       # Table walker walks requested
system.cpu.dtb.walker.walksLong               9847116                       # Table walker walks initiated with long descriptors
system.cpu.dtb.walker.walksLongTerminationLevel::Level2        48852                       # Level at which table walker walks with long descriptors terminate
system.cpu.dtb.walker.walksLongTerminationLevel::Level3      1378740                       # Level at which table walker walks with long descriptors terminate
system.cpu.dtb.walker.walksSquashedBefore      1341629                       # Table walks squashed before starting
system.cpu.dtb.walker.walkWaitTime::samples      8505487                       # Table walker wait (enqueue to first request) latency
system.cpu.dtb.walker.walkWaitTime::mean   545.625783                       # Table walker wait (enqueue to first request) latency
system.cpu.dtb.walker.walkWaitTime::stdev  7613.641668                       # Table walker wait (enqueue to first request) latency
system.cpu.dtb.walker.walkWaitTime::0-65535      8480392     99.70%     99.70% # Table walker wait (enqueue to first request) latency
system.cpu.dtb.walker.walkWaitTime::65536-131071        19203      0.23%     99.93% # Table walker wait (enqueue to first request) latency
system.cpu.dtb.walker.walkWaitTime::131072-196607         3706      0.04%     99.97% # Table walker wait (enqueue to first request) latency
system.cpu.dtb.walker.walkWaitTime::196608-262143         1254      0.01%     99.99% # Table walker wait (enqueue to first request) latency
system.cpu.dtb.walker.walkWaitTime::262144-327679          381      0.00%     99.99% # Table walker wait (enqueue to first request) latency
system.cpu.dtb.walker.walkWaitTime::327680-393215          203      0.00%    100.00% # Table walker wait (enqueue to first request) latency
system.cpu.dtb.walker.walkWaitTime::393216-458751          110      0.00%    100.00% # Table walker wait (enqueue to first request) latency
system.cpu.dtb.walker.walkWaitTime::458752-524287           48      0.00%    100.00% # Table walker wait (enqueue to first request) latency
system.cpu.dtb.walker.walkWaitTime::524288-589823           61      0.00%    100.00% # Table walker wait (enqueue to first request) latency
system.cpu.dtb.walker.walkWaitTime::589824-655359          122      0.00%    100.00% # Table walker wait (enqueue to first request) latency
system.cpu.dtb.walker.walkWaitTime::655360-720895            6      0.00%    100.00% # Table walker wait (enqueue to first request) latency
system.cpu.dtb.walker.walkWaitTime::720896-786431            1      0.00%    100.00% # Table walker wait (enqueue to first request) latency
system.cpu.dtb.walker.walkWaitTime::total      8505487                       # Table walker wait (enqueue to first request) latency
system.cpu.dtb.walker.walkCompletionTime::samples      2592411                       # Table walker service (enqueue to completion) latency
system.cpu.dtb.walker.walkCompletionTime::mean 21271.678986                       # Table walker service (enqueue to completion) latency
system.cpu.dtb.walker.walkCompletionTime::gmean  8102.716085                       # Table walker service (enqueue to completion) latency
system.cpu.dtb.walker.walkCompletionTime::stdev 49828.894569                       # Table walker service (enqueue to completion) latency
system.cpu.dtb.walker.walkCompletionTime::0-131071      2537235     97.87%     97.87% # Table walker service (enqueue to completion) latency
system.cpu.dtb.walker.walkCompletionTime::131072-262143        37661      1.45%     99.32% # Table walker service (enqueue to completion) latency
system.cpu.dtb.walker.walkCompletionTime::262144-393215         7387      0.28%     99.61% # Table walker service (enqueue to completion) latency
system.cpu.dtb.walker.walkCompletionTime::393216-524287         1350      0.05%     99.66% # Table walker service (enqueue to completion) latency
system.cpu.dtb.walker.walkCompletionTime::524288-655359         8576      0.33%     99.99% # Table walker service (enqueue to completion) latency
system.cpu.dtb.walker.walkCompletionTime::655360-786431          185      0.01%    100.00% # Table walker service (enqueue to completion) latency
system.cpu.dtb.walker.walkCompletionTime::786432-917503            9      0.00%    100.00% # Table walker service (enqueue to completion) latency
system.cpu.dtb.walker.walkCompletionTime::917504-1.04858e+06            1      0.00%    100.00% # Table walker service (enqueue to completion) latency
system.cpu.dtb.walker.walkCompletionTime::1.04858e+06-1.17965e+06            1      0.00%    100.00% # Table walker service (enqueue to completion) latency
system.cpu.dtb.walker.walkCompletionTime::1.17965e+06-1.31072e+06            6      0.00%    100.00% # Table walker service (enqueue to completion) latency
system.cpu.dtb.walker.walkCompletionTime::total      2592411                       # Table walker service (enqueue to completion) latency
system.cpu.dtb.walker.walksPending::samples 5472947951912                       # Table walker pending requests distribution
system.cpu.dtb.walker.walksPending::mean     0.787378                       # Table walker pending requests distribution
system.cpu.dtb.walker.walksPending::stdev     0.444220                       # Table walker pending requests distribution
system.cpu.dtb.walker.walksPending::0-1  5465984708412     99.87%     99.87% # Table walker pending requests distribution
system.cpu.dtb.walker.walksPending::2-3    3914525500      0.07%     99.94% # Table walker pending requests distribution
system.cpu.dtb.walker.walksPending::4-5    1462065000      0.03%     99.97% # Table walker pending requests distribution
system.cpu.dtb.walker.walksPending::6-7     473578500      0.01%     99.98% # Table walker pending requests distribution
system.cpu.dtb.walker.walksPending::8-9     787456000      0.01%     99.99% # Table walker pending requests distribution
system.cpu.dtb.walker.walksPending::10-11     77815000      0.00%    100.00% # Table walker pending requests distribution
system.cpu.dtb.walker.walksPending::12-13     59158000      0.00%    100.00% # Table walker pending requests distribution
system.cpu.dtb.walker.walksPending::14-15    185876000      0.00%    100.00% # Table walker pending requests distribution
system.cpu.dtb.walker.walksPending::16-17      2454000      0.00%    100.00% # Table walker pending requests distribution
system.cpu.dtb.walker.walksPending::18-19       315500      0.00%    100.00% # Table walker pending requests distribution
system.cpu.dtb.walker.walksPending::total 5472947951912                       # Table walker pending requests distribution
system.cpu.dtb.walker.walkPageSizes::4K       1378740     96.58%     96.58% # Table walker page sizes translated
system.cpu.dtb.walker.walkPageSizes::2M         48852      3.42%    100.00% # Table walker page sizes translated
system.cpu.dtb.walker.walkPageSizes::total      1427592                       # Table walker page sizes translated
system.cpu.dtb.walker.walkRequestOrigin_Requested::Data      9847116                       # Table walker requests started/completed, data/inst
system.cpu.dtb.walker.walkRequestOrigin_Requested::Inst            0                       # Table walker requests started/completed, data/inst
system.cpu.dtb.walker.walkRequestOrigin_Requested::total      9847116                       # Table walker requests started/completed, data/inst
system.cpu.dtb.walker.walkRequestOrigin_Completed::Data      1427592                       # Table walker requests started/completed, data/inst
system.cpu.dtb.walker.walkRequestOrigin_Completed::Inst            0                       # Table walker requests started/completed, data/inst
system.cpu.dtb.walker.walkRequestOrigin_Completed::total      1427592                       # Table walker requests started/completed, data/inst
system.cpu.dtb.walker.walkRequestOrigin::total     11274708                       # Table walker requests started/completed, data/inst
system.cpu.dtb.inst_hits                            0                       # ITB inst hits
system.cpu.dtb.inst_misses                          0                       # ITB inst misses
system.cpu.dtb.read_hits                   1761727012                       # DTB read hits
system.cpu.dtb.read_misses                    8909879                       # DTB read misses
system.cpu.dtb.write_hits                   586758617                       # DTB write hits
system.cpu.dtb.write_misses                    937237                       # DTB write misses
system.cpu.dtb.flush_tlb                           13                       # Number of times complete TLB was flushed
system.cpu.dtb.flush_tlb_mva                        6                       # Number of times TLB was flushed by MVA
system.cpu.dtb.flush_tlb_mva_asid              115528                       # Number of times TLB was flushed by MVA & ASID
system.cpu.dtb.flush_tlb_asid                     708                       # Number of times TLB was flushed by ASID
system.cpu.dtb.flush_entries                    92215                       # Number of entries that have been flushed from TLB
system.cpu.dtb.align_faults                      1213                       # Number of TLB faults due to alignment restrictions
system.cpu.dtb.prefetch_faults                  29955                       # Number of TLB faults due to prefetch
system.cpu.dtb.domain_faults                        0                       # Number of TLB faults due to domain restrictions
system.cpu.dtb.perms_faults                    187057                       # Number of TLB faults due to permissions restrictions
system.cpu.dtb.read_accesses               1770636891                       # DTB read accesses
system.cpu.dtb.write_accesses               587695854                       # DTB write accesses
system.cpu.dtb.inst_accesses                        0                       # ITB inst accesses
system.cpu.dtb.hits                        2348485629                       # DTB hits
system.cpu.dtb.misses                         9847116                       # DTB misses
system.cpu.dtb.accesses                    2358332745                       # DTB accesses
system.cpu.istage2_mmu.stage2_tlb.walker.pwrStateResidencyTicks::UNDEFINED 542142015627500                       # Cumulative time (in ticks) in various power states
system.cpu.istage2_mmu.stage2_tlb.walker.walks            0                       # Table walker walks requested
system.cpu.istage2_mmu.stage2_tlb.walker.walkRequestOrigin_Requested::Data            0                       # Table walker requests started/completed, data/inst
system.cpu.istage2_mmu.stage2_tlb.walker.walkRequestOrigin_Requested::Inst            0                       # Table walker requests started/completed, data/inst
system.cpu.istage2_mmu.stage2_tlb.walker.walkRequestOrigin_Requested::total            0                       # Table walker requests started/completed, data/inst
system.cpu.istage2_mmu.stage2_tlb.walker.walkRequestOrigin_Completed::Data            0                       # Table walker requests started/completed, data/inst
system.cpu.istage2_mmu.stage2_tlb.walker.walkRequestOrigin_Completed::Inst            0                       # Table walker requests started/completed, data/inst
system.cpu.istage2_mmu.stage2_tlb.walker.walkRequestOrigin_Completed::total            0                       # Table walker requests started/completed, data/inst
system.cpu.istage2_mmu.stage2_tlb.walker.walkRequestOrigin::total            0                       # Table walker requests started/completed, data/inst
system.cpu.istage2_mmu.stage2_tlb.inst_hits            0                       # ITB inst hits
system.cpu.istage2_mmu.stage2_tlb.inst_misses            0                       # ITB inst misses
system.cpu.istage2_mmu.stage2_tlb.read_hits            0                       # DTB read hits
system.cpu.istage2_mmu.stage2_tlb.read_misses            0                       # DTB read misses
system.cpu.istage2_mmu.stage2_tlb.write_hits            0                       # DTB write hits
system.cpu.istage2_mmu.stage2_tlb.write_misses            0                       # DTB write misses
system.cpu.istage2_mmu.stage2_tlb.flush_tlb            0                       # Number of times complete TLB was flushed
system.cpu.istage2_mmu.stage2_tlb.flush_tlb_mva            0                       # Number of times TLB was flushed by MVA
system.cpu.istage2_mmu.stage2_tlb.flush_tlb_mva_asid            0                       # Number of times TLB was flushed by MVA & ASID
system.cpu.istage2_mmu.stage2_tlb.flush_tlb_asid            0                       # Number of times TLB was flushed by ASID
system.cpu.istage2_mmu.stage2_tlb.flush_entries            0                       # Number of entries that have been flushed from TLB
system.cpu.istage2_mmu.stage2_tlb.align_faults            0                       # Number of TLB faults due to alignment restrictions
system.cpu.istage2_mmu.stage2_tlb.prefetch_faults            0                       # Number of TLB faults due to prefetch
system.cpu.istage2_mmu.stage2_tlb.domain_faults            0                       # Number of TLB faults due to domain restrictions
system.cpu.istage2_mmu.stage2_tlb.perms_faults            0                       # Number of TLB faults due to permissions restrictions
system.cpu.istage2_mmu.stage2_tlb.read_accesses            0                       # DTB read accesses
system.cpu.istage2_mmu.stage2_tlb.write_accesses            0                       # DTB write accesses
system.cpu.istage2_mmu.stage2_tlb.inst_accesses            0                       # ITB inst accesses
system.cpu.istage2_mmu.stage2_tlb.hits              0                       # DTB hits
system.cpu.istage2_mmu.stage2_tlb.misses            0                       # DTB misses
system.cpu.istage2_mmu.stage2_tlb.accesses            0                       # DTB accesses
system.cpu.itb.walker.pwrStateResidencyTicks::UNDEFINED 542142015627500                       # Cumulative time (in ticks) in various power states
system.cpu.itb.walker.walks                    427038                       # Table walker walks requested
system.cpu.itb.walker.walksLong                427038                       # Table walker walks initiated with long descriptors
system.cpu.itb.walker.walksLongTerminationLevel::Level2         6213                       # Level at which table walker walks with long descriptors terminate
system.cpu.itb.walker.walksLongTerminationLevel::Level3       289024                       # Level at which table walker walks with long descriptors terminate
system.cpu.itb.walker.walksSquashedBefore        27590                       # Table walks squashed before starting
system.cpu.itb.walker.walkWaitTime::samples       399448                       # Table walker wait (enqueue to first request) latency
system.cpu.itb.walker.walkWaitTime::mean   643.748373                       # Table walker wait (enqueue to first request) latency
system.cpu.itb.walker.walkWaitTime::stdev  7609.799056                       # Table walker wait (enqueue to first request) latency
system.cpu.itb.walker.walkWaitTime::0-65535       398095     99.66%     99.66% # Table walker wait (enqueue to first request) latency
system.cpu.itb.walker.walkWaitTime::65536-131071         1113      0.28%     99.94% # Table walker wait (enqueue to first request) latency
system.cpu.itb.walker.walkWaitTime::131072-196607          143      0.04%     99.98% # Table walker wait (enqueue to first request) latency
system.cpu.itb.walker.walkWaitTime::196608-262143           53      0.01%     99.99% # Table walker wait (enqueue to first request) latency
system.cpu.itb.walker.walkWaitTime::262144-327679           29      0.01%    100.00% # Table walker wait (enqueue to first request) latency
system.cpu.itb.walker.walkWaitTime::327680-393215           10      0.00%    100.00% # Table walker wait (enqueue to first request) latency
system.cpu.itb.walker.walkWaitTime::393216-458751            3      0.00%    100.00% # Table walker wait (enqueue to first request) latency
system.cpu.itb.walker.walkWaitTime::524288-589823            2      0.00%    100.00% # Table walker wait (enqueue to first request) latency
system.cpu.itb.walker.walkWaitTime::total       399448                       # Table walker wait (enqueue to first request) latency
system.cpu.itb.walker.walkCompletionTime::samples       322827                       # Table walker service (enqueue to completion) latency
system.cpu.itb.walker.walkCompletionTime::mean 18634.597593                       # Table walker service (enqueue to completion) latency
system.cpu.itb.walker.walkCompletionTime::gmean  7456.109181                       # Table walker service (enqueue to completion) latency
system.cpu.itb.walker.walkCompletionTime::stdev 37696.835891                       # Table walker service (enqueue to completion) latency
system.cpu.itb.walker.walkCompletionTime::0-65535       286299     88.68%     88.68% # Table walker service (enqueue to completion) latency
system.cpu.itb.walker.walkCompletionTime::65536-131071        31381      9.72%     98.41% # Table walker service (enqueue to completion) latency
system.cpu.itb.walker.walkCompletionTime::131072-196607         3070      0.95%     99.36% # Table walker service (enqueue to completion) latency
system.cpu.itb.walker.walkCompletionTime::196608-262143         1041      0.32%     99.68% # Table walker service (enqueue to completion) latency
system.cpu.itb.walker.walkCompletionTime::262144-327679          556      0.17%     99.85% # Table walker service (enqueue to completion) latency
system.cpu.itb.walker.walkCompletionTime::327680-393215          282      0.09%     99.94% # Table walker service (enqueue to completion) latency
system.cpu.itb.walker.walkCompletionTime::393216-458751           70      0.02%     99.96% # Table walker service (enqueue to completion) latency
system.cpu.itb.walker.walkCompletionTime::458752-524287           30      0.01%     99.97% # Table walker service (enqueue to completion) latency
system.cpu.itb.walker.walkCompletionTime::524288-589823           11      0.00%     99.97% # Table walker service (enqueue to completion) latency
system.cpu.itb.walker.walkCompletionTime::589824-655359           85      0.03%    100.00% # Table walker service (enqueue to completion) latency
system.cpu.itb.walker.walkCompletionTime::655360-720895            2      0.00%    100.00% # Table walker service (enqueue to completion) latency
system.cpu.itb.walker.walkCompletionTime::total       322827                       # Table walker service (enqueue to completion) latency
system.cpu.itb.walker.walksPending::samples 1723459396504                       # Table walker pending requests distribution
system.cpu.itb.walker.walksPending::mean     0.951343                       # Table walker pending requests distribution
system.cpu.itb.walker.walksPending::stdev     0.215531                       # Table walker pending requests distribution
system.cpu.itb.walker.walksPending::0     83998753408      4.87%      4.87% # Table walker pending requests distribution
system.cpu.itb.walker.walksPending::1    1639320050096     95.12%     99.99% # Table walker pending requests distribution
system.cpu.itb.walker.walksPending::2       140094500      0.01%    100.00% # Table walker pending requests distribution
system.cpu.itb.walker.walksPending::3          485500      0.00%    100.00% # Table walker pending requests distribution
system.cpu.itb.walker.walksPending::4           10500      0.00%    100.00% # Table walker pending requests distribution
system.cpu.itb.walker.walksPending::5            2500      0.00%    100.00% # Table walker pending requests distribution
system.cpu.itb.walker.walksPending::total 1723459396504                       # Table walker pending requests distribution
system.cpu.itb.walker.walkPageSizes::4K        289024     97.90%     97.90% # Table walker page sizes translated
system.cpu.itb.walker.walkPageSizes::2M          6213      2.10%    100.00% # Table walker page sizes translated
system.cpu.itb.walker.walkPageSizes::total       295237                       # Table walker page sizes translated
system.cpu.itb.walker.walkRequestOrigin_Requested::Data            0                       # Table walker requests started/completed, data/inst
system.cpu.itb.walker.walkRequestOrigin_Requested::Inst       427038                       # Table walker requests started/completed, data/inst
system.cpu.itb.walker.walkRequestOrigin_Requested::total       427038                       # Table walker requests started/completed, data/inst
system.cpu.itb.walker.walkRequestOrigin_Completed::Data            0                       # Table walker requests started/completed, data/inst
system.cpu.itb.walker.walkRequestOrigin_Completed::Inst       295237                       # Table walker requests started/completed, data/inst
system.cpu.itb.walker.walkRequestOrigin_Completed::total       295237                       # Table walker requests started/completed, data/inst
system.cpu.itb.walker.walkRequestOrigin::total       722275                       # Table walker requests started/completed, data/inst
system.cpu.itb.inst_hits                   2747482890                       # ITB inst hits
system.cpu.itb.inst_misses                     427038                       # ITB inst misses
system.cpu.itb.read_hits                            0                       # DTB read hits
system.cpu.itb.read_misses                          0                       # DTB read misses
system.cpu.itb.write_hits                           0                       # DTB write hits
system.cpu.itb.write_misses                         0                       # DTB write misses
system.cpu.itb.flush_tlb                           13                       # Number of times complete TLB was flushed
system.cpu.itb.flush_tlb_mva                        6                       # Number of times TLB was flushed by MVA
system.cpu.itb.flush_tlb_mva_asid              115528                       # Number of times TLB was flushed by MVA & ASID
system.cpu.itb.flush_tlb_asid                     708                       # Number of times TLB was flushed by ASID
system.cpu.itb.flush_entries                    41337                       # Number of entries that have been flushed from TLB
system.cpu.itb.align_faults                         0                       # Number of TLB faults due to alignment restrictions
system.cpu.itb.prefetch_faults                      0                       # Number of TLB faults due to prefetch
system.cpu.itb.domain_faults                        0                       # Number of TLB faults due to domain restrictions
system.cpu.itb.perms_faults                    685861                       # Number of TLB faults due to permissions restrictions
system.cpu.itb.read_accesses                        0                       # DTB read accesses
system.cpu.itb.write_accesses                       0                       # DTB write accesses
system.cpu.itb.inst_accesses               2747909928                       # ITB inst accesses
system.cpu.itb.hits                        2747482890                       # DTB hits
system.cpu.itb.misses                          427038                       # DTB misses
system.cpu.itb.accesses                    2747909928                       # DTB accesses
system.cpu.numPwrStateTransitions               42634                       # Number of power state transitions
system.cpu.pwrStateClkGateDist::samples         21317                       # Distribution of time spent in the clock gated state
system.cpu.pwrStateClkGateDist::mean     25177434682.547920                       # Distribution of time spent in the clock gated state
system.cpu.pwrStateClkGateDist::stdev    151905452266.181122                       # Distribution of time spent in the clock gated state
system.cpu.pwrStateClkGateDist::underflows        20478     96.06%     96.06% # Distribution of time spent in the clock gated state
system.cpu.pwrStateClkGateDist::1000-5e+10          192      0.90%     96.96% # Distribution of time spent in the clock gated state
system.cpu.pwrStateClkGateDist::5e+10-1e+11           24      0.11%     97.08% # Distribution of time spent in the clock gated state
system.cpu.pwrStateClkGateDist::1e+11-1.5e+11           23      0.11%     97.19% # Distribution of time spent in the clock gated state
system.cpu.pwrStateClkGateDist::1.5e+11-2e+11           23      0.11%     97.29% # Distribution of time spent in the clock gated state
system.cpu.pwrStateClkGateDist::2e+11-2.5e+11           21      0.10%     97.39% # Distribution of time spent in the clock gated state
system.cpu.pwrStateClkGateDist::2.5e+11-3e+11            9      0.04%     97.43% # Distribution of time spent in the clock gated state
system.cpu.pwrStateClkGateDist::3e+11-3.5e+11            4      0.02%     97.45% # Distribution of time spent in the clock gated state
system.cpu.pwrStateClkGateDist::3.5e+11-4e+11            1      0.00%     97.46% # Distribution of time spent in the clock gated state
system.cpu.pwrStateClkGateDist::4e+11-4.5e+11            2      0.01%     97.47% # Distribution of time spent in the clock gated state
system.cpu.pwrStateClkGateDist::4.5e+11-5e+11            6      0.03%     97.49% # Distribution of time spent in the clock gated state
system.cpu.pwrStateClkGateDist::5e+11-5.5e+11            7      0.03%     97.53% # Distribution of time spent in the clock gated state
system.cpu.pwrStateClkGateDist::5.5e+11-6e+11            1      0.00%     97.53% # Distribution of time spent in the clock gated state
system.cpu.pwrStateClkGateDist::6e+11-6.5e+11            2      0.01%     97.54% # Distribution of time spent in the clock gated state
system.cpu.pwrStateClkGateDist::6.5e+11-7e+11            2      0.01%     97.55% # Distribution of time spent in the clock gated state
system.cpu.pwrStateClkGateDist::7e+11-7.5e+11            7      0.03%     97.58% # Distribution of time spent in the clock gated state
system.cpu.pwrStateClkGateDist::7.5e+11-8e+11           18      0.08%     97.67% # Distribution of time spent in the clock gated state
system.cpu.pwrStateClkGateDist::8e+11-8.5e+11           21      0.10%     97.77% # Distribution of time spent in the clock gated state
system.cpu.pwrStateClkGateDist::8.5e+11-9e+11           21      0.10%     97.87% # Distribution of time spent in the clock gated state
system.cpu.pwrStateClkGateDist::9e+11-9.5e+11           19      0.09%     97.95% # Distribution of time spent in the clock gated state
system.cpu.pwrStateClkGateDist::9.5e+11-1e+12          436      2.05%    100.00% # Distribution of time spent in the clock gated state
system.cpu.pwrStateClkGateDist::min_value          501                       # Distribution of time spent in the clock gated state
system.cpu.pwrStateClkGateDist::max_value 999974432032                       # Distribution of time spent in the clock gated state
system.cpu.pwrStateClkGateDist::total           21317                       # Distribution of time spent in the clock gated state
system.cpu.pwrStateResidencyTicks::ON    5434640499626                       # Cumulative time (in ticks) in various power states
system.cpu.pwrStateResidencyTicks::CLK_GATED 536707375127874                       # Cumulative time (in ticks) in various power states
system.cpu.numCycles                      10869282598                       # number of cpu cycles simulated
system.cpu.numWorkItemsStarted                      0                       # number of work items this cpu started
system.cpu.numWorkItemsCompleted                    0                       # number of work items this cpu completed
system.cpu.fetch.icacheStallCycles         3396222283                       # Number of cycles fetch is stalled on an Icache miss
system.cpu.fetch.Insts                     8346245495                       # Number of instructions fetch has processed
system.cpu.fetch.Branches                  1367349603                       # Number of branches that fetch encountered
system.cpu.fetch.predictedBranches          723541582                       # Number of branches that fetch has predicted taken
system.cpu.fetch.Cycles                    6656446551                       # Number of cycles fetch has run and was not squashing or blocked
system.cpu.fetch.SquashCycles               157991798                       # Number of cycles fetch has spent squashing
system.cpu.fetch.TlbCycles                    6145871                       # Number of cycles fetch has spent waiting for tlb
system.cpu.fetch.MiscStallCycles             17176415                       # Number of cycles fetch has spent waiting on interrupts, or bad addresses, or out of MSHRs
system.cpu.fetch.PendingTrapStallCycles      15888395                       # Number of stall cycles due to pending traps
system.cpu.fetch.PendingQuiesceStallCycles      3582880                       # Number of stall cycles due to pending quiesce instructions
system.cpu.fetch.IcacheWaitRetryStallCycles     30510368                       # Number of stall cycles due to full MSHR
system.cpu.fetch.CacheLines                2746734986                       # Number of cache lines fetched
system.cpu.fetch.IcacheSquashes              37260959                       # Number of outstanding Icache misses that were squashed
system.cpu.fetch.ItlbSquashes                   76142                       # Number of outstanding ITLB misses that were squashed
system.cpu.fetch.rateDist::samples        10204968662                       # Number of instructions fetched each cycle (Total)
system.cpu.fetch.rateDist::mean              0.869734                       # Number of instructions fetched each cycle (Total)
system.cpu.fetch.rateDist::stdev             1.178842                       # Number of instructions fetched each cycle (Total)
system.cpu.fetch.rateDist::underflows               0      0.00%      0.00% # Number of instructions fetched each cycle (Total)
system.cpu.fetch.rateDist::0               5855366299     57.38%     57.38% # Number of instructions fetched each cycle (Total)
system.cpu.fetch.rateDist::1               1810245851     17.74%     75.12% # Number of instructions fetched each cycle (Total)
system.cpu.fetch.rateDist::2                552703532      5.42%     80.53% # Number of instructions fetched each cycle (Total)
system.cpu.fetch.rateDist::3               1986652980     19.47%    100.00% # Number of instructions fetched each cycle (Total)
system.cpu.fetch.rateDist::overflows                0      0.00%    100.00% # Number of instructions fetched each cycle (Total)
system.cpu.fetch.rateDist::min_value                0                       # Number of instructions fetched each cycle (Total)
system.cpu.fetch.rateDist::max_value                3                       # Number of instructions fetched each cycle (Total)
system.cpu.fetch.rateDist::total          10204968662                       # Number of instructions fetched each cycle (Total)
system.cpu.fetch.branchRate                  0.125799                       # Number of branch fetches per cycle
system.cpu.fetch.rate                        0.767875                       # Number of inst fetches per cycle
system.cpu.decode.IdleCycles               2674241144                       # Number of cycles decode is idle
system.cpu.decode.BlockedCycles            3778385307                       # Number of cycles decode is blocked
system.cpu.decode.RunCycles                3249929709                       # Number of cycles decode is running
system.cpu.decode.UnblockCycles             433102204                       # Number of cycles decode is unblocking
system.cpu.decode.SquashCycles               69310298                       # Number of cycles decode is squashing
system.cpu.decode.BranchResolved            591489701                       # Number of times decode resolved a branch
system.cpu.decode.BranchMispred               9820148                       # Number of times decode detected a branch misprediction
system.cpu.decode.DecodedInsts             8263228302                       # Number of instructions handled by decode
system.cpu.decode.SquashedInsts             184330694                       # Number of squashed instructions handled by decode
system.cpu.rename.SquashCycles               69310298                       # Number of cycles rename is squashing
[...]
system.ruby.Directory_Controller.Data::total         2132                      
system.ruby.Directory_Controller.I.GETX  |     9616137    100.00%    100.00% |           0      0.00%    100.00%
system.ruby.Directory_Controller.I.GETX::total      9616137                      
system.ruby.Directory_Controller.I.GETS  |     6816903    100.00%    100.00% |           9      0.00%    100.00%
system.ruby.Directory_Controller.I.GETS::total      6816912                      
system.ruby.Directory_Controller.I.Memory_Ack |    15518069    100.00%    100.00% |           0      0.00%    100.00%
system.ruby.Directory_Controller.I.Memory_Ack::total     15518069                      
system.ruby.Directory_Controller.I.DMA_READ |        8527    100.00%    100.00% |           0      0.00%    100.00%
system.ruby.Directory_Controller.I.DMA_READ::total         8527                      
system.ruby.Directory_Controller.I.DMA_WRITE |      452893    100.00%    100.00% |           0      0.00%    100.00%
system.ruby.Directory_Controller.I.DMA_WRITE::total       452893                      
system.ruby.Directory_Controller.S.GETX  |     5895935    100.00%    100.00% |           0      0.00%    100.00%
system.ruby.Directory_Controller.S.GETX::total      5895935                      
system.ruby.Directory_Controller.S.GETS  |    13328861    100.00%    100.00% |           0      0.00%    100.00%
system.ruby.Directory_Controller.S.GETS::total     13328861                      
system.ruby.Directory_Controller.S.DMA_READ |        1089    100.00%    100.00% |           0      0.00%    100.00%
system.ruby.Directory_Controller.S.DMA_READ::total         1089                      
system.ruby.Directory_Controller.S.DMA_WRITE |       10423    100.00%    100.00% |           0      0.00%    100.00%
system.ruby.Directory_Controller.S.DMA_WRITE::total        10423                      
system.ruby.Directory_Controller.M.PUTX  |    15507720    100.00%    100.00% |           0      0.00%    100.00%
system.ruby.Directory_Controller.M.PUTX::total     15507720                      
system.ruby.Directory_Controller.M.DMA_READ |        4622    100.00%    100.00% |           0      0.00%    100.00%
system.ruby.Directory_Controller.M.DMA_READ::total         4622                      
system.ruby.Directory_Controller.M.DMA_WRITE |        2132    100.00%    100.00% |           0      0.00%    100.00%
system.ruby.Directory_Controller.M.DMA_WRITE::total         2132                      
system.ruby.Directory_Controller.IS.GETX |          31    100.00%    100.00% |           0      0.00%    100.00%
system.ruby.Directory_Controller.IS.GETX::total           31                      
system.ruby.Directory_Controller.IS.Unblock |     6816902    100.00%    100.00% |           9      0.00%    100.00%
system.ruby.Directory_Controller.IS.Unblock::total      6816911                      
system.ruby.Directory_Controller.IS.Memory_Data |     6816903    100.00%    100.00% |           9      0.00%    100.00%
system.ruby.Directory_Controller.IS.Memory_Data::total      6816912                      
system.ruby.Directory_Controller.IS.Memory_Ack |        1593    100.00%    100.00% |           0      0.00%    100.00%
system.ruby.Directory_Controller.IS.Memory_Ack::total         1593                      
system.ruby.Directory_Controller.SS.GETX |           1    100.00%    100.00% |           0      0.00%    100.00%
system.ruby.Directory_Controller.SS.GETX::total            1                      
system.ruby.Directory_Controller.SS.Last_Unblock |    13328861    100.00%    100.00% |           0      0.00%    100.00%
system.ruby.Directory_Controller.SS.Last_Unblock::total     13328861                      
system.ruby.Directory_Controller.SS.Memory_Data |    13328861    100.00%    100.00% |           0      0.00%    100.00%
system.ruby.Directory_Controller.SS.Memory_Data::total     13328861                      
system.ruby.Directory_Controller.MM.Exclusive_Unblock |    15512072    100.00%    100.00% |           0      0.00%    100.00%
system.ruby.Directory_Controller.MM.Exclusive_Unblock::total     15512072                      
system.ruby.Directory_Controller.MM.Memory_Data |    15512072    100.00%    100.00% |           0      0.00%    100.00%
system.ruby.Directory_Controller.MM.Memory_Data::total     15512072                      
system.ruby.Directory_Controller.MM.Memory_Ack |        2827    100.00%    100.00% |           0      0.00%    100.00%
system.ruby.Directory_Controller.MM.Memory_Ack::total         2827                      
system.ruby.Directory_Controller.MI.GETX |          14    100.00%    100.00% |           0      0.00%    100.00%
system.ruby.Directory_Controller.MI.GETX::total           14                      
system.ruby.Directory_Controller.MI.Dirty_Writeback |    15507720    100.00%    100.00% |           0      0.00%    100.00%
system.ruby.Directory_Controller.MI.Dirty_Writeback::total     15507720                      
system.ruby.Directory_Controller.XI_M.Memory_Data |        8527    100.00%    100.00% |           0      0.00%    100.00%
system.ruby.Directory_Controller.XI_M.Memory_Data::total         8527                      
system.ruby.Directory_Controller.XI_U.Exclusive_Unblock |      465448    100.00%    100.00% |           0      0.00%    100.00%
system.ruby.Directory_Controller.XI_U.Exclusive_Unblock::total       465448                      
system.ruby.Directory_Controller.XI_U.Memory_Ack |      450679    100.00%    100.00% |           0      0.00%    100.00%
system.ruby.Directory_Controller.XI_U.Memory_Ack::total       450679                      
system.ruby.Directory_Controller.OI_D.Data |        2132    100.00%    100.00% |           0      0.00%    100.00%
system.ruby.Directory_Controller.OI_D.Data::total         2132                      
system.ruby.Directory_Controller.MD.DMA_ACK |        4622    100.00%    100.00% |           0      0.00%    100.00%
system.ruby.Directory_Controller.MD.DMA_ACK::total         4622                      
system.ruby.DMA_Controller.ReadRequest   |           0      0.00%      0.00% |      323648    100.00%    100.00% |           0      0.00%    100.00%
system.ruby.DMA_Controller.ReadRequest::total       323648                      
system.ruby.DMA_Controller.WriteRequest  |           0      0.00%      0.00% |    14311746    100.00%    100.00% |           0      0.00%    100.00%
system.ruby.DMA_Controller.WriteRequest::total     14311746                      
system.ruby.DMA_Controller.Data          |           0      0.00%      0.00% |       14238    100.00%    100.00% |           0      0.00%    100.00%
system.ruby.DMA_Controller.Data::total          14238                      
system.ruby.DMA_Controller.DMA_Ack       |           0      0.00%      0.00% |      465448    100.00%    100.00% |           0      0.00%    100.00%
system.ruby.DMA_Controller.DMA_Ack::total       465448                      
system.ruby.DMA_Controller.Inv_Ack       |           0      0.00%      0.00% |       10423    100.00%    100.00% |           0      0.00%    100.00%
system.ruby.DMA_Controller.Inv_Ack::total        10423                      
system.ruby.DMA_Controller.All_Acks      |           0      0.00%      0.00% |      465448    100.00%    100.00% |           0      0.00%    100.00%
system.ruby.DMA_Controller.All_Acks::total       465448                      
system.ruby.DMA_Controller.READY.ReadRequest |           0      0.00%      0.00% |       14238    100.00%    100.00% |           0      0.00%    100.00%
system.ruby.DMA_Controller.READY.ReadRequest::total        14238                      
system.ruby.DMA_Controller.READY.WriteRequest |           0      0.00%      0.00% |      465448    100.00%    100.00% |           0      0.00%    100.00%
system.ruby.DMA_Controller.READY.WriteRequest::total       465448                      
system.ruby.DMA_Controller.BUSY_RD.ReadRequest |           0      0.00%      0.00% |      309410    100.00%    100.00% |           0      0.00%    100.00%
system.ruby.DMA_Controller.BUSY_RD.ReadRequest::total       309410                      
system.ruby.DMA_Controller.BUSY_RD.Data  |           0      0.00%      0.00% |       14238    100.00%    100.00% |           0      0.00%    100.00%
system.ruby.DMA_Controller.BUSY_RD.Data::total        14238                      
system.ruby.DMA_Controller.BUSY_WR.WriteRequest |           0      0.00%      0.00% |    13846298    100.00%    100.00% |           0      0.00%    100.00%
system.ruby.DMA_Controller.BUSY_WR.WriteRequest::total     13846298                      
system.ruby.DMA_Controller.BUSY_WR.DMA_Ack |           0      0.00%      0.00% |      465448    100.00%    100.00% |           0      0.00%    100.00%
system.ruby.DMA_Controller.BUSY_WR.DMA_Ack::total       465448                      
system.ruby.DMA_Controller.BUSY_WR.Inv_Ack |           0      0.00%      0.00% |       10423    100.00%    100.00% |           0      0.00%    100.00%
system.ruby.DMA_Controller.BUSY_WR.Inv_Ack::total        10423                      
system.ruby.DMA_Controller.BUSY_WR.All_Acks |           0      0.00%      0.00% |      465448    100.00%    100.00% |           0      0.00%    100.00%
system.ruby.DMA_Controller.BUSY_WR.All_Acks::total       465448                      
system.ruby.L1Cache_Controller.Load        1601488014      0.00%      0.00%
system.ruby.L1Cache_Controller.Ifetch    18446744072161611776      0.00%      0.00%
system.ruby.L1Cache_Controller.Store        578827952      0.00%      0.00%
system.ruby.L1Cache_Controller.L1_Replacement     97562379      0.00%      0.00%
system.ruby.L1Cache_Controller.Fwd_GETX           362      0.00%      0.00%
system.ruby.L1Cache_Controller.Fwd_DMA           2530      0.00%      0.00%
system.ruby.L1Cache_Controller.Inv                 27      0.00%      0.00%
system.ruby.L1Cache_Controller.Data          56818651      0.00%      0.00%
system.ruby.L1Cache_Controller.Exclusive_Data     44082399      0.00%      0.00%
system.ruby.L1Cache_Controller.Writeback_Ack     36189227      0.00%      0.00%
system.ruby.L1Cache_Controller.Writeback_Ack_Data     60745212      0.00%      0.00%
system.ruby.L1Cache_Controller.All_acks      29590707      0.00%      0.00%
system.ruby.L1Cache_Controller.Use_Timeout     44082399      0.00%      0.00%
system.ruby.L1Cache_Controller.I.Load        31455770      0.00%      0.00%
system.ruby.L1Cache_Controller.I.Ifetch      39854574      0.00%      0.00%
system.ruby.L1Cache_Controller.I.Store       25625762      0.00%      0.00%
system.ruby.L1Cache_Controller.I.L1_Replacement          360      0.00%      0.00%
system.ruby.L1Cache_Controller.S.Load       374476567      0.00%      0.00%
system.ruby.L1Cache_Controller.S.Ifetch  18446744072118394880      0.00%      0.00%
system.ruby.L1Cache_Controller.S.Store        3964945      0.00%      0.00%
system.ruby.L1Cache_Controller.S.L1_Replacement     52853139      0.00%      0.00%
system.ruby.L1Cache_Controller.S.Inv               27      0.00%      0.00%
system.ruby.L1Cache_Controller.M.Load       142264691      0.00%      0.00%
system.ruby.L1Cache_Controller.M.Ifetch       2747749      0.00%      0.00%
system.ruby.L1Cache_Controller.M.Store        1664969      0.00%      0.00%
system.ruby.L1Cache_Controller.M.L1_Replacement     11101486      0.00%      0.00%
system.ruby.L1Cache_Controller.M.Fwd_GETX           23      0.00%      0.00%
system.ruby.L1Cache_Controller.M_W.Load      22512148      0.00%      0.00%
system.ruby.L1Cache_Controller.M_W.Ifetch        18277      0.00%      0.00%
system.ruby.L1Cache_Controller.M_W.Store      1725175      0.00%      0.00%
system.ruby.L1Cache_Controller.M_W.L1_Replacement       130978      0.00%      0.00%
system.ruby.L1Cache_Controller.M_W.Use_Timeout     12766517      0.00%      0.00%
system.ruby.L1Cache_Controller.MM.Load     1026435790      0.00%      0.00%
system.ruby.L1Cache_Controller.MM.Store     503816677      0.00%      0.00%
system.ruby.L1Cache_Controller.MM.L1_Replacement     32979815      0.00%      0.00%
system.ruby.L1Cache_Controller.MM.Fwd_GETX          339      0.00%      0.00%
system.ruby.L1Cache_Controller.MM.Fwd_DMA         2530      0.00%      0.00%
system.ruby.L1Cache_Controller.MM_W.Load      3755397      0.00%      0.00%
system.ruby.L1Cache_Controller.MM_W.Store     41996852      0.00%      0.00%
system.ruby.L1Cache_Controller.MM_W.L1_Replacement       216474      0.00%      0.00%
system.ruby.L1Cache_Controller.MM_W.Use_Timeout     31315882      0.00%      0.00%
system.ruby.L1Cache_Controller.IM.L1_Replacement        61787      0.00%      0.00%
system.ruby.L1Cache_Controller.IM.Exclusive_Data     25625762      0.00%      0.00%
system.ruby.L1Cache_Controller.SM.L1_Replacement        77746      0.00%      0.00%
system.ruby.L1Cache_Controller.SM.Exclusive_Data      3964945      0.00%      0.00%
system.ruby.L1Cache_Controller.OM.L1_Replacement         1335      0.00%      0.00%
system.ruby.L1Cache_Controller.OM.All_acks     29590707      0.00%      0.00%
system.ruby.L1Cache_Controller.IS.L1_Replacement       139259      0.00%      0.00%
system.ruby.L1Cache_Controller.IS.Data       56818651      0.00%      0.00%
system.ruby.L1Cache_Controller.IS.Exclusive_Data     14491692      0.00%      0.00%
system.ruby.L1Cache_Controller.SI.Load         501394      0.00%      0.00%
system.ruby.L1Cache_Controller.SI.Ifetch       595109      0.00%      0.00%
system.ruby.L1Cache_Controller.SI.Store         12285      0.00%      0.00%
system.ruby.L1Cache_Controller.SI.Writeback_Ack     36189227      0.00%      0.00%
system.ruby.L1Cache_Controller.SI.Writeback_Ack_Data     16663911      0.00%      0.00%
system.ruby.L1Cache_Controller.MI.Load          86257      0.00%      0.00%
system.ruby.L1Cache_Controller.MI.Ifetch           74      0.00%      0.00%
system.ruby.L1Cache_Controller.MI.Store         21287      0.00%      0.00%
system.ruby.L1Cache_Controller.MI.Writeback_Ack_Data     44081301      0.00%      0.00%
system.ruby.L2Cache_Controller.L1_GETS       71312727      0.00%      0.00%
system.ruby.L2Cache_Controller.L1_GETX       29598493      0.00%      0.00%
system.ruby.L2Cache_Controller.L1_PUTX       44081301      0.00%      0.00%
system.ruby.L2Cache_Controller.L1_PUTS_only     52853139      0.00%      0.00%
system.ruby.L2Cache_Controller.L1_PUTS             25      0.00%      0.00%
system.ruby.L2Cache_Controller.Fwd_GETX          2132      0.00%      0.00%
system.ruby.L2Cache_Controller.Fwd_DMA           4970      0.00%      0.00%
system.ruby.L2Cache_Controller.Inv              10423      0.00%      0.00%
system.ruby.L2Cache_Controller.IntAck              27      0.00%      0.00%
system.ruby.L2Cache_Controller.All_Acks      15512099      0.00%      0.00%
system.ruby.L2Cache_Controller.Data          35657845      0.00%      0.00%
system.ruby.L2Cache_Controller.Data_Exclusive          362      0.00%      0.00%
system.ruby.L2Cache_Controller.L1_WBCLEANDATA     16663911      0.00%      0.00%
system.ruby.L2Cache_Controller.L1_WBDIRTYDATA     44081301      0.00%      0.00%
system.ruby.L2Cache_Controller.Writeback_Ack     15507720      0.00%      0.00%
system.ruby.L2Cache_Controller.Unblock       93007878      0.00%      0.00%
system.ruby.L2Cache_Controller.Exclusive_Unblock     44082399      0.00%      0.00%
system.ruby.L2Cache_Controller.DmaAck            2530      0.00%      0.00%
system.ruby.L2Cache_Controller.L2_Replacement     31864215      0.00%      0.00%
system.ruby.L2Cache_Controller.NP.L1_GETS     20145683      0.00%      0.00%
system.ruby.L2Cache_Controller.NP.L1_GETX     11456881      0.00%      0.00%
system.ruby.L2Cache_Controller.NP.Inv           10148      0.00%      0.00%
system.ruby.L2Cache_Controller.I.L1_GETS           91      0.00%      0.00%
system.ruby.L2Cache_Controller.ILS.L1_GETX      3750405      0.00%      0.00%
system.ruby.L2Cache_Controller.ILS.L1_PUTS_only     16663912      0.00%      0.00%
system.ruby.L2Cache_Controller.ILS.Inv             26      0.00%      0.00%
system.ruby.L2Cache_Controller.ILX.L1_PUTX     44081301      0.00%      0.00%
system.ruby.L2Cache_Controller.ILX.Fwd_GETX          362      0.00%      0.00%
system.ruby.L2Cache_Controller.ILX.Fwd_DMA         2530      0.00%      0.00%
system.ruby.L2Cache_Controller.S.L1_GETS     36672878      0.00%      0.00%
system.ruby.L2Cache_Controller.S.L1_GETX        90246      0.00%      0.00%
system.ruby.L2Cache_Controller.S.Inv              248      0.00%      0.00%
system.ruby.L2Cache_Controller.S.L2_Replacement     16087407      0.00%      0.00%
system.ruby.L2Cache_Controller.SLS.L1_GETX       214540      0.00%      0.00%
system.ruby.L2Cache_Controller.SLS.L1_PUTS_only     36189227      0.00%      0.00%
system.ruby.L2Cache_Controller.SLS.Inv              1      0.00%      0.00%
system.ruby.L2Cache_Controller.SLS.L2_Replacement       268862      0.00%      0.00%
system.ruby.L2Cache_Controller.M.L1_GETS     14491692      0.00%      0.00%
system.ruby.L2Cache_Controller.M.L1_GETX     14078635      0.00%      0.00%
system.ruby.L2Cache_Controller.M.Fwd_GETX         1770      0.00%      0.00%
system.ruby.L2Cache_Controller.M.Fwd_DMA         2092      0.00%      0.00%
system.ruby.L2Cache_Controller.M.L2_Replacement     15507720      0.00%      0.00%
system.ruby.L2Cache_Controller.IFGX.Data_Exclusive          362      0.00%      0.00%
system.ruby.L2Cache_Controller.IW.L1_GETS           80      0.00%      0.00%
system.ruby.L2Cache_Controller.IW.L1_GETX            6      0.00%      0.00%
system.ruby.L2Cache_Controller.IW.L1_WBCLEANDATA     16663911      0.00%      0.00%
system.ruby.L2Cache_Controller.SW.L1_GETS         1075      0.00%      0.00%
system.ruby.L2Cache_Controller.SW.L1_GETX           27      0.00%      0.00%
system.ruby.L2Cache_Controller.SW.Unblock     36189227      0.00%      0.00%
system.ruby.L2Cache_Controller.SW.L2_Replacement          226      0.00%      0.00%
system.ruby.L2Cache_Controller.ILXW.L1_GETS          108      0.00%      0.00%
system.ruby.L2Cache_Controller.ILXW.L1_GETX           76      0.00%      0.00%
system.ruby.L2Cache_Controller.ILXW.Fwd_DMA          348      0.00%      0.00%
system.ruby.L2Cache_Controller.ILXW.L1_WBDIRTYDATA     44081301      0.00%      0.00%
system.ruby.L2Cache_Controller.IGS.L1_GETX          119      0.00%      0.00%
system.ruby.L2Cache_Controller.IGS.Data      20145773      0.00%      0.00%
system.ruby.L2Cache_Controller.IGS.Unblock     20145773      0.00%      0.00%
system.ruby.L2Cache_Controller.IGM.Data      11547127      0.00%      0.00%
system.ruby.L2Cache_Controller.IGMLS.Data      3964945      0.00%      0.00%
system.ruby.L2Cache_Controller.IGMO.All_Acks     15512072      0.00%      0.00%
system.ruby.L2Cache_Controller.IGMO.Exclusive_Unblock     15512072      0.00%      0.00%
system.ruby.L2Cache_Controller.II.IntAck           27      0.00%      0.00%
system.ruby.L2Cache_Controller.II.All_Acks           27      0.00%      0.00%
system.ruby.L2Cache_Controller.MM.Exclusive_Unblock     14078635      0.00%      0.00%
system.ruby.L2Cache_Controller.SS.L1_GETX           35      0.00%      0.00%
system.ruby.L2Cache_Controller.SS.L1_PUTS           25      0.00%      0.00%
system.ruby.L2Cache_Controller.SS.Unblock     36672878      0.00%      0.00%
system.ruby.L2Cache_Controller.OO.Exclusive_Unblock     14491692      0.00%      0.00%
system.ruby.L2Cache_Controller.MI.L1_GETS         1120      0.00%      0.00%
system.ruby.L2Cache_Controller.MI.L1_GETX         7523      0.00%      0.00%
system.ruby.L2Cache_Controller.MI.Writeback_Ack     15507720      0.00%      0.00%
system.ruby.L2Cache_Controller.ILXD.DmaAck         2530      0.00%      0.00%

---------- End Simulation Statistics   ----------