
---------- Begin Simulation Statistics ----------
sim_seconds                               2403.853775                       # Number of seconds simulated
sim_ticks                                2403853775137500                       # Number of ticks simulated
final_tick                               2403853775137500                       # Number of ticks from beginning of simulation (restored from checkpoints and never reset)
sim_freq                                 1000000000000                       # Frequency of simulated ticks
host_inst_rate                                 152143                       # Simulator instruction rate (inst/s)
host_op_rate                                   162319                       # Simulator op (including micro ops) rate (op/s)
host_tick_rate                            51741872377                       # Simulator tick rate (ticks/s)
host_mem_usage                                2713424                       # Number of bytes of host memory used
host_seconds                                 46458.58                       # Real time elapsed on the host
sim_insts                                  7068350289                       # Number of instructions simulated
sim_ops                                    7541121905                       # Number of ops (including micro ops) simulated
system.voltage_domain.voltage                       1                       # Voltage in Volts
system.clk_domain.clock                          1000                       # Clock period in ticks
system.bootmem.pwrStateResidencyTicks::UNDEFINED 2403853775137500                       # Cumulative time (in ticks) in various power states
system.bootmem.bytes_read::ruby.network.ext_links3.ext_node          576                       # Number of bytes read from this memory
system.bootmem.bytes_read::total                  576                       # Number of bytes read from this memory
system.bootmem.num_reads::ruby.network.ext_links3.ext_node            9                       # Number of read requests responded to by this memory
system.bootmem.num_reads::total                     9                       # Number of read requests responded to by this memory
system.bootmem.bw_read::ruby.network.ext_links3.ext_node            0                       # Total read bandwidth from this memory (bytes/s)
system.bootmem.bw_read::total                       0                       # Total read bandwidth from this memory (bytes/s)
system.bootmem.bw_total::ruby.network.ext_links3.ext_node            0                       # Total bandwidth to/from this memory (bytes/s)
system.bootmem.bw_total::total                      0                       # Total bandwidth to/from this memory (bytes/s)
system.mem_ctrls.pwrStateResidencyTicks::UNDEFINED 2403853775137500                       # Cumulative time (in ticks) in various power states
system.mem_ctrls.bytes_read::ruby.dir_cntrl0   1589641856                       # Number of bytes read from this memory
system.mem_ctrls.bytes_read::total         1589641856                       # Number of bytes read from this memory
system.mem_ctrls.bytes_written::ruby.dir_cntrl0    696170048                       # Number of bytes written to this memory
system.mem_ctrls.bytes_written::total       696170048                       # Number of bytes written to this memory
system.mem_ctrls.num_reads::ruby.dir_cntrl0     24838154                       # Number of read requests responded to by this memory
system.mem_ctrls.num_reads::total            24838154                       # Number of read requests responded to by this memory
system.mem_ctrls.num_writes::ruby.dir_cntrl0     10877657                       # Number of write requests responded to by this memory
system.mem_ctrls.num_writes::total           10877657                       # Number of write requests responded to by this memory
system.mem_ctrls.bw_read::ruby.dir_cntrl0       661289                       # Total read bandwidth from this memory (bytes/s)
system.mem_ctrls.bw_read::total                661289                       # Total read bandwidth from this memory (bytes/s)
system.mem_ctrls.bw_write::ruby.dir_cntrl0       289606                       # Write bandwidth from this memory (bytes/s)
system.mem_ctrls.bw_write::total               289606                       # Write bandwidth from this memory (bytes/s)
system.mem_ctrls.bw_total::ruby.dir_cntrl0       950895                       # Total bandwidth to/from this memory (bytes/s)
system.mem_ctrls.bw_total::total               950895                       # Total bandwidth to/from this memory (bytes/s)
system.mem_ctrls.readReqs                    24838154                       # Number of read requests accepted
system.mem_ctrls.writeReqs                   10877657                       # Number of write requests accepted
system.mem_ctrls.readBursts                  24838154                       # Number of DRAM read bursts, including those serviced by the write queue
system.mem_ctrls.writeBursts                 10877657                       # Number of DRAM write bursts, including those merged in the write queue
system.mem_ctrls.bytesReadDRAM             1584780864                       # Total number of bytes read from DRAM
system.mem_ctrls.bytesReadWrQ                 4860992                       # Total number of bytes read from write queue
system.mem_ctrls.bytesWritten               696095616                       # Total number of bytes written to DRAM
system.mem_ctrls.bytesReadSys              1589641856                       # Total read bytes from the system interface side
system.mem_ctrls.bytesWrittenSys            696170048                       # Total written bytes from the system interface side
system.mem_ctrls.servicedByWrQ                  75953                       # Number of DRAM read bursts serviced by the write queue
system.mem_ctrls.mergedWrBursts                  1139                       # Number of DRAM write bursts merged with an existing one
system.mem_ctrls.neitherReadNorWriteReqs            0                       # Number of requests that are neither read nor write
system.mem_ctrls.perBankRdBursts::0           1437067                       # Per bank write bursts
system.mem_ctrls.perBankRdBursts::1           1678087                       # Per bank write bursts
system.mem_ctrls.perBankRdBursts::2           1654438                       # Per bank write bursts
system.mem_ctrls.perBankRdBursts::3           1450648                       # Per bank write bursts
system.mem_ctrls.perBankRdBursts::4           1341547                       # Per bank write bursts
system.mem_ctrls.perBankRdBursts::5           1742513                       # Per bank write bursts
system.mem_ctrls.perBankRdBursts::6           1755889                       # Per bank write bursts
system.mem_ctrls.perBankRdBursts::7           1416080                       # Per bank write bursts
system.mem_ctrls.perBankRdBursts::8           1206932                       # Per bank write bursts
system.mem_ctrls.perBankRdBursts::9           1647300                       # Per bank write bursts
system.mem_ctrls.perBankRdBursts::10          1732658                       # Per bank write bursts
system.mem_ctrls.perBankRdBursts::11          1490223                       # Per bank write bursts
system.mem_ctrls.perBankRdBursts::12          1565991                       # Per bank write bursts
system.mem_ctrls.perBankRdBursts::13          1567698                       # Per bank write bursts
system.mem_ctrls.perBankRdBursts::14          1761717                       # Per bank write bursts
system.mem_ctrls.perBankRdBursts::15          1313413                       # Per bank write bursts
system.mem_ctrls.perBankWrBursts::0            672131                       # Per bank write bursts
system.mem_ctrls.perBankWrBursts::1            806547                       # Per bank write bursts
system.mem_ctrls.perBankWrBursts::2            716181                       # Per bank write bursts
system.mem_ctrls.perBankWrBursts::3            593420                       # Per bank write bursts
system.mem_ctrls.perBankWrBursts::4            634506                       # Per bank write bursts
system.mem_ctrls.perBankWrBursts::5            729958                       # Per bank write bursts
system.mem_ctrls.perBankWrBursts::6            742697                       # Per bank write bursts
system.mem_ctrls.perBankWrBursts::7            655862                       # Per bank write bursts
system.mem_ctrls.perBankWrBursts::8            593462                       # Per bank write bursts
system.mem_ctrls.perBankWrBursts::9            662449                       # Per bank write bursts
system.mem_ctrls.perBankWrBursts::10           746759                       # Per bank write bursts
system.mem_ctrls.perBankWrBursts::11           615815                       # Per bank write bursts
system.mem_ctrls.perBankWrBursts::12           688257                       # Per bank write bursts
system.mem_ctrls.perBankWrBursts::13           679932                       # Per bank write bursts
system.mem_ctrls.perBankWrBursts::14           755768                       # Per bank write bursts
system.mem_ctrls.perBankWrBursts::15           582750                       # Per bank write bursts
system.mem_ctrls.numRdRetry                         0                       # Number of times read queue was full causing retry
system.mem_ctrls.numWrRetry                      2872                       # Number of times write queue was full causing retry
system.mem_ctrls.totGap                  2403853774568500                       # Total gap between requests
system.mem_ctrls.readPktSize::0                     0                       # Read request sizes (log2)
system.mem_ctrls.readPktSize::1                     0                       # Read request sizes (log2)
system.mem_ctrls.readPktSize::2                     0                       # Read request sizes (log2)
system.mem_ctrls.readPktSize::3                     0                       # Read request sizes (log2)
system.mem_ctrls.readPktSize::4                     0                       # Read request sizes (log2)
system.mem_ctrls.readPktSize::5                     0                       # Read request sizes (log2)
system.mem_ctrls.readPktSize::6              24838154                       # Read request sizes (log2)
system.mem_ctrls.writePktSize::0                    0                       # Write request sizes (log2)
system.mem_ctrls.writePktSize::1                    0                       # Write request sizes (log2)
system.mem_ctrls.writePktSize::2                    0                       # Write request sizes (log2)
system.mem_ctrls.writePktSize::3                    0                       # Write request sizes (log2)
system.mem_ctrls.writePktSize::4                    0                       # Write request sizes (log2)
system.mem_ctrls.writePktSize::5                    0                       # Write request sizes (log2)
system.mem_ctrls.writePktSize::6             10877657                       # Write request sizes (log2)
system.mem_ctrls.rdQLenPdf::0                14378315                       # What read queue length does an incoming req see
system.mem_ctrls.rdQLenPdf::1                 4714971                       # What read queue length does an incoming req see
system.mem_ctrls.rdQLenPdf::2                 1009084                       # What read queue length does an incoming req see
system.mem_ctrls.rdQLenPdf::3                  457874                       # What read queue length does an incoming req see
system.mem_ctrls.rdQLenPdf::4                  333923                       # What read queue length does an incoming req see
system.mem_ctrls.rdQLenPdf::5                  435979                       # What read queue length does an incoming req see
system.mem_ctrls.rdQLenPdf::6                  594910                       # What read queue length does an incoming req see
system.mem_ctrls.rdQLenPdf::7                  749022                       # What read queue length does an incoming req see
system.mem_ctrls.rdQLenPdf::8                  300076                       # What read queue length does an incoming req see
system.mem_ctrls.rdQLenPdf::9                  297857                       # What read queue length does an incoming req see
system.mem_ctrls.rdQLenPdf::10                 304010                       # What read queue length does an incoming req see
system.mem_ctrls.rdQLenPdf::11                 301622                       # What read queue length does an incoming req see
system.mem_ctrls.rdQLenPdf::12                 288543                       # What read queue length does an incoming req see
system.mem_ctrls.rdQLenPdf::13                 256627                       # What read queue length does an incoming req see
system.mem_ctrls.rdQLenPdf::14                 174490                       # What read queue length does an incoming req see
system.mem_ctrls.rdQLenPdf::15                 164896                       # What read queue length does an incoming req see
system.mem_ctrls.rdQLenPdf::16                      2                       # What read queue length does an incoming req see
system.mem_ctrls.rdQLenPdf::17                      0                       # What read queue length does an incoming req see
system.mem_ctrls.rdQLenPdf::18                      0                       # What read queue length does an incoming req see
system.mem_ctrls.rdQLenPdf::19                      0                       # What read queue length does an incoming req see
system.mem_ctrls.rdQLenPdf::20                      0                       # What read queue length does an incoming req see
system.mem_ctrls.rdQLenPdf::21                      0                       # What read queue length does an incoming req see
system.mem_ctrls.rdQLenPdf::22                      0                       # What read queue length does an incoming req see
system.mem_ctrls.rdQLenPdf::23                      0                       # What read queue length does an incoming req see
system.mem_ctrls.rdQLenPdf::24                      0                       # What read queue length does an incoming req see
system.mem_ctrls.rdQLenPdf::25                      0                       # What read queue length does an incoming req see
system.mem_ctrls.rdQLenPdf::26                      0                       # What read queue length does an incoming req see
system.mem_ctrls.rdQLenPdf::27                      0                       # What read queue length does an incoming req see
system.mem_ctrls.rdQLenPdf::28                      0                       # What read queue length does an incoming req see
system.mem_ctrls.rdQLenPdf::29                      0                       # What read queue length does an incoming req see
system.mem_ctrls.rdQLenPdf::30                      0                       # What read queue length does an incoming req see
system.mem_ctrls.rdQLenPdf::31                      0                       # What read queue length does an incoming req see
system.mem_ctrls.wrQLenPdf::0                       1                       # What write queue length does an incoming req see
system.mem_ctrls.wrQLenPdf::1                       1                       # What write queue length does an incoming req see
system.mem_ctrls.wrQLenPdf::2                       1                       # What write queue length does an incoming req see
system.mem_ctrls.wrQLenPdf::3                       1                       # What write queue length does an incoming req see
system.mem_ctrls.wrQLenPdf::4                       1                       # What write queue length does an incoming req see
system.mem_ctrls.wrQLenPdf::5                       1                       # What write queue length does an incoming req see
system.mem_ctrls.wrQLenPdf::6                       1                       # What write queue length does an incoming req see
system.mem_ctrls.wrQLenPdf::7                       1                       # What write queue length does an incoming req see
system.mem_ctrls.wrQLenPdf::8                       1                       # What write queue length does an incoming req see
system.mem_ctrls.wrQLenPdf::9                       1                       # What write queue length does an incoming req see
system.mem_ctrls.wrQLenPdf::10                      1                       # What write queue length does an incoming req see
system.mem_ctrls.wrQLenPdf::11                      1                       # What write queue length does an incoming req see
system.mem_ctrls.wrQLenPdf::12                      1                       # What write queue length does an incoming req see
system.mem_ctrls.wrQLenPdf::13                      1                       # What write queue length does an incoming req see
system.mem_ctrls.wrQLenPdf::14                      1                       # What write queue length does an incoming req see
system.mem_ctrls.wrQLenPdf::15                 180490                       # What write queue length does an incoming req see
system.mem_ctrls.wrQLenPdf::16                 207401                       # What write queue length does an incoming req see
system.mem_ctrls.wrQLenPdf::17                 370420                       # What write queue length does an incoming req see
system.mem_ctrls.wrQLenPdf::18                 470420                       # What write queue length does an incoming req see
system.mem_ctrls.wrQLenPdf::19                 499566                       # What write queue length does an incoming req see
system.mem_ctrls.wrQLenPdf::20                 508094                       # What write queue length does an incoming req see
system.mem_ctrls.wrQLenPdf::21                 520287                       # What write queue length does an incoming req see
system.mem_ctrls.wrQLenPdf::22                 532593                       # What write queue length does an incoming req see
system.mem_ctrls.wrQLenPdf::23                 541527                       # What write queue length does an incoming req see
system.mem_ctrls.wrQLenPdf::24                 555955                       # What write queue length does an incoming req see
system.mem_ctrls.wrQLenPdf::25                 565922                       # What write queue length does an incoming req see
system.mem_ctrls.wrQLenPdf::26                 573242                       # What write queue length does an incoming req see
system.mem_ctrls.wrQLenPdf::27                 583574                       # What write queue length does an incoming req see
system.mem_ctrls.wrQLenPdf::28                 593099                       # What write queue length does an incoming req see
system.mem_ctrls.wrQLenPdf::29                 594634                       # What write queue length does an incoming req see
system.mem_ctrls.wrQLenPdf::30                 595794                       # What write queue length does an incoming req see
system.mem_ctrls.wrQLenPdf::31                 597404                       # What write queue length does an incoming req see
system.mem_ctrls.wrQLenPdf::32                 602944                       # What write queue length does an incoming req see
system.mem_ctrls.wrQLenPdf::33                 102539                       # What write queue length does an incoming req see
system.mem_ctrls.wrQLenPdf::34                  88742                       # What write queue length does an incoming req see
system.mem_ctrls.wrQLenPdf::35                  74032                       # What write queue length does an incoming req see
system.mem_ctrls.wrQLenPdf::36                  62311                       # What write queue length does an incoming req see
system.mem_ctrls.wrQLenPdf::37                  58170                       # What write queue length does an incoming req see
system.mem_ctrls.wrQLenPdf::38                  61702                       # What write queue length does an incoming req see
system.mem_ctrls.wrQLenPdf::39                  63163                       # What write queue length does an incoming req see
system.mem_ctrls.wrQLenPdf::40                  73140                       # What write queue length does an incoming req see
system.mem_ctrls.wrQLenPdf::41                  90311                       # What write queue length does an incoming req see
system.mem_ctrls.wrQLenPdf::42                 100376                       # What write queue length does an incoming req see
system.mem_ctrls.wrQLenPdf::43                  84088                       # What write queue length does an incoming req see
system.mem_ctrls.wrQLenPdf::44                 116140                       # What write queue length does an incoming req see
system.mem_ctrls.wrQLenPdf::45                  86079                       # What write queue length does an incoming req see
system.mem_ctrls.wrQLenPdf::46                  76659                       # What write queue length does an incoming req see
system.mem_ctrls.wrQLenPdf::47                  90868                       # What write queue length does an incoming req see
system.mem_ctrls.wrQLenPdf::48                  97212                       # What write queue length does an incoming req see
system.mem_ctrls.wrQLenPdf::49                 114938                       # What write queue length does an incoming req see
system.mem_ctrls.wrQLenPdf::50                  97084                       # What write queue length does an incoming req see
system.mem_ctrls.wrQLenPdf::51                  90628                       # What write queue length does an incoming req see
system.mem_ctrls.wrQLenPdf::52                  63956                       # What write queue length does an incoming req see
system.mem_ctrls.wrQLenPdf::53                  39456                       # What write queue length does an incoming req see
system.mem_ctrls.wrQLenPdf::54                  17203                       # What write queue length does an incoming req see
system.mem_ctrls.wrQLenPdf::55                   8717                       # What write queue length does an incoming req see
system.mem_ctrls.wrQLenPdf::56                   4941                       # What write queue length does an incoming req see
system.mem_ctrls.wrQLenPdf::57                   3644                       # What write queue length does an incoming req see
system.mem_ctrls.wrQLenPdf::58                   2870                       # What write queue length does an incoming req see
system.mem_ctrls.wrQLenPdf::59                   2438                       # What write queue length does an incoming req see
system.mem_ctrls.wrQLenPdf::60                   2034                       # What write queue length does an incoming req see
system.mem_ctrls.wrQLenPdf::61                   1916                       # What write queue length does an incoming req see
system.mem_ctrls.wrQLenPdf::62                   2701                       # What write queue length does an incoming req see
system.mem_ctrls.wrQLenPdf::63                   5079                       # What write queue length does an incoming req see
system.mem_ctrls.bytesPerActivate::samples     10430042                       # Bytes accessed per row activation
system.mem_ctrls.bytesPerActivate::mean    218.683186                       # Bytes accessed per row activation
system.mem_ctrls.bytesPerActivate::gmean   133.490279                       # Bytes accessed per row activation
system.mem_ctrls.bytesPerActivate::stdev   272.068663                       # Bytes accessed per row activation
system.mem_ctrls.bytesPerActivate::0-127      4996106     47.90%     47.90% # Bytes accessed per row activation
system.mem_ctrls.bytesPerActivate::128-255      2915322     27.95%     75.85% # Bytes accessed per row activation
system.mem_ctrls.bytesPerActivate::256-383       833668      7.99%     83.85% # Bytes accessed per row activation
system.mem_ctrls.bytesPerActivate::384-511       377446      3.62%     87.46% # Bytes accessed per row activation
system.mem_ctrls.bytesPerActivate::512-639       226020      2.17%     89.63% # Bytes accessed per row activation
system.mem_ctrls.bytesPerActivate::640-767       143249      1.37%     91.00% # Bytes accessed per row activation
system.mem_ctrls.bytesPerActivate::768-895       100980      0.97%     91.97% # Bytes accessed per row activation
system.mem_ctrls.bytesPerActivate::896-1023        83889      0.80%     92.78% # Bytes accessed per row activation
system.mem_ctrls.bytesPerActivate::1024-1151       753362      7.22%    100.00% # Bytes accessed per row activation
system.mem_ctrls.bytesPerActivate::total     10430042                       # Bytes accessed per row activation
system.mem_ctrls.rdPerTurnAround::samples       639199                       # Reads before turning the bus around for writes
system.mem_ctrls.rdPerTurnAround::mean      38.739338                       # Reads before turning the bus around for writes
system.mem_ctrls.rdPerTurnAround::stdev     34.624363                       # Reads before turning the bus around for writes
system.mem_ctrls.rdPerTurnAround::0-255        638473     99.89%     99.89% # Reads before turning the bus around for writes
system.mem_ctrls.rdPerTurnAround::256-511          584      0.09%     99.98% # Reads before turning the bus around for writes
system.mem_ctrls.rdPerTurnAround::512-767           78      0.01%     99.99% # Reads before turning the bus around for writes
system.mem_ctrls.rdPerTurnAround::768-1023           27      0.00%     99.99% # Reads before turning the bus around for writes
system.mem_ctrls.rdPerTurnAround::1024-1279           17      0.00%    100.00% # Reads before turning the bus around for writes
system.mem_ctrls.rdPerTurnAround::1280-1535            8      0.00%    100.00% # Reads before turning the bus around for writes
system.mem_ctrls.rdPerTurnAround::1536-1791            3      0.00%    100.00% # Reads before turning the bus around for writes
system.mem_ctrls.rdPerTurnAround::1792-2047            3      0.00%    100.00% # Reads before turning the bus around for writes
system.mem_ctrls.rdPerTurnAround::2560-2815            2      0.00%    100.00% # Reads before turning the bus around for writes
system.mem_ctrls.rdPerTurnAround::2816-3071            1      0.00%    100.00% # Reads before turning the bus around for writes
system.mem_ctrls.rdPerTurnAround::3072-3327            1      0.00%    100.00% # Reads before turning the bus around for writes
system.mem_ctrls.rdPerTurnAround::3328-3583            1      0.00%    100.00% # Reads before turning the bus around for writes
system.mem_ctrls.rdPerTurnAround::7424-7679            1      0.00%    100.00% # Reads before turning the bus around for writes
system.mem_ctrls.rdPerTurnAround::total        639199                       # Reads before turning the bus around for writes
system.mem_ctrls.wrPerTurnAround::samples       639199                       # Writes before turning the bus around for reads
system.mem_ctrls.wrPerTurnAround::mean      17.015818                       # Writes before turning the bus around for reads
system.mem_ctrls.wrPerTurnAround::gmean     16.881158                       # Writes before turning the bus around for reads
system.mem_ctrls.wrPerTurnAround::stdev      2.721975                       # Writes before turning the bus around for reads
system.mem_ctrls.wrPerTurnAround::16-17        453458     70.94%     70.94% # Writes before turning the bus around for reads
system.mem_ctrls.wrPerTurnAround::18-19        155816     24.38%     95.32% # Writes before turning the bus around for reads
system.mem_ctrls.wrPerTurnAround::20-21         11717      1.83%     97.15% # Writes before turning the bus around for reads
system.mem_ctrls.wrPerTurnAround::22-23          4487      0.70%     97.85% # Writes before turning the bus around for reads
system.mem_ctrls.wrPerTurnAround::24-25          2939      0.46%     98.31% # Writes before turning the bus around for reads
system.mem_ctrls.wrPerTurnAround::26-27          2007      0.31%     98.63% # Writes before turning the bus around for reads
system.mem_ctrls.wrPerTurnAround::28-29          1892      0.30%     98.92% # Writes before turning the bus around for reads
system.mem_ctrls.wrPerTurnAround::30-31          2243      0.35%     99.27% # Writes before turning the bus around for reads
system.mem_ctrls.wrPerTurnAround::32-33          1494      0.23%     99.51% # Writes before turning the bus around for reads
system.mem_ctrls.wrPerTurnAround::34-35           644      0.10%     99.61% # Writes before turning the bus around for reads
system.mem_ctrls.wrPerTurnAround::36-37          1193      0.19%     99.80% # Writes before turning the bus around for reads
system.mem_ctrls.wrPerTurnAround::38-39           120      0.02%     99.81% # Writes before turning the bus around for reads
system.mem_ctrls.wrPerTurnAround::40-41            81      0.01%     99.83% # Writes before turning the bus around for reads
system.mem_ctrls.wrPerTurnAround::42-43           377      0.06%     99.89% # Writes before turning the bus around for reads
system.mem_ctrls.wrPerTurnAround::44-45            72      0.01%     99.90% # Writes before turning the bus around for reads
system.mem_ctrls.wrPerTurnAround::46-47            64      0.01%     99.91% # Writes before turning the bus around for reads
system.mem_ctrls.wrPerTurnAround::48-49            79      0.01%     99.92% # Writes before turning the bus around for reads
system.mem_ctrls.wrPerTurnAround::50-51            33      0.01%     99.92% # Writes before turning the bus around for reads
system.mem_ctrls.wrPerTurnAround::52-53            36      0.01%     99.93% # Writes before turning the bus around for reads
system.mem_ctrls.wrPerTurnAround::54-55            29      0.00%     99.93% # Writes before turning the bus around for reads
system.mem_ctrls.wrPerTurnAround::56-57            22      0.00%     99.94% # Writes before turning the bus around for reads
system.mem_ctrls.wrPerTurnAround::58-59            15      0.00%     99.94% # Writes before turning the bus around for reads
system.mem_ctrls.wrPerTurnAround::60-61            29      0.00%     99.94% # Writes before turning the bus around for reads
system.mem_ctrls.wrPerTurnAround::62-63            21      0.00%     99.95% # Writes before turning the bus around for reads
system.mem_ctrls.wrPerTurnAround::64-65           129      0.02%     99.97% # Writes before turning the bus around for reads
system.mem_ctrls.wrPerTurnAround::66-67            42      0.01%     99.97% # Writes before turning the bus around for reads
system.mem_ctrls.wrPerTurnAround::68-69            31      0.00%     99.98% # Writes before turning the bus around for reads
system.mem_ctrls.wrPerTurnAround::70-71            24      0.00%     99.98% # Writes before turning the bus around for reads
system.mem_ctrls.wrPerTurnAround::72-73            16      0.00%     99.99% # Writes before turning the bus around for reads
system.mem_ctrls.wrPerTurnAround::74-75            23      0.00%     99.99% # Writes before turning the bus around for reads
system.mem_ctrls.wrPerTurnAround::76-77            12      0.00%     99.99% # Writes before turning the bus around for reads
system.mem_ctrls.wrPerTurnAround::78-79            10      0.00%     99.99% # Writes before turning the bus around for reads
system.mem_ctrls.wrPerTurnAround::80-81             6      0.00%     99.99% # Writes before turning the bus around for reads
system.mem_ctrls.wrPerTurnAround::82-83            11      0.00%    100.00% # Writes before turning the bus around for reads
system.mem_ctrls.wrPerTurnAround::84-85             6      0.00%    100.00% # Writes before turning the bus around for reads
system.mem_ctrls.wrPerTurnAround::88-89             1      0.00%    100.00% # Writes before turning the bus around for reads
system.mem_ctrls.wrPerTurnAround::90-91             6      0.00%    100.00% # Writes before turning the bus around for reads
system.mem_ctrls.wrPerTurnAround::94-95             1      0.00%    100.00% # Writes before turning the bus around for reads
system.mem_ctrls.wrPerTurnAround::96-97             1      0.00%    100.00% # Writes before turning the bus around for reads
system.mem_ctrls.wrPerTurnAround::98-99             1      0.00%    100.00% # Writes before turning the bus around for reads
system.mem_ctrls.wrPerTurnAround::100-101            1      0.00%    100.00% # Writes before turning the bus around for reads
system.mem_ctrls.wrPerTurnAround::104-105            2      0.00%    100.00% # Writes before turning the bus around for reads
system.mem_ctrls.wrPerTurnAround::106-107            6      0.00%    100.00% # Writes before turning the bus around for reads
system.mem_ctrls.wrPerTurnAround::116-117            1      0.00%    100.00% # Writes before turning the bus around for reads
system.mem_ctrls.wrPerTurnAround::124-125            1      0.00%    100.00% # Writes before turning the bus around for reads
system.mem_ctrls.wrPerTurnAround::total        639199                       # Writes before turning the bus around for reads
system.mem_ctrls.totQLat                 817011649820                       # Total ticks spent queuing
system.mem_ctrls.totMemAccLat            1281302918570                       # Total ticks spent from burst creation until serviced by the DRAM
system.mem_ctrls.totBusLat               123811005000                       # Total ticks spent in databus transfers
system.mem_ctrls.avgQLat                     32994.31                       # Average queueing delay per DRAM burst
system.mem_ctrls.avgBusLat                    5000.00                       # Average bus latency per DRAM burst
system.mem_ctrls.avgMemAccLat                51744.31                       # Average memory access latency per DRAM burst
system.mem_ctrls.avgRdBW                         0.66                       # Average DRAM read bandwidth in MiByte/s
system.mem_ctrls.avgWrBW                         0.29                       # Average achieved write bandwidth in MiByte/s
system.mem_ctrls.avgRdBWSys                      0.66                       # Average system read bandwidth in MiByte/s
system.mem_ctrls.avgWrBWSys                      0.29                       # Average system write bandwidth in MiByte/s
system.mem_ctrls.peakBW                      12800.00                       # Theoretical peak bandwidth in MiByte/s
system.mem_ctrls.busUtil                         0.01                       # Data bus utilization in percentage
system.mem_ctrls.busUtilRead                     0.01                       # Data bus utilization in percentage for reads
system.mem_ctrls.busUtilWrite                    0.00                       # Data bus utilization in percentage for writes
system.mem_ctrls.avgRdQLen                       1.00                       # Average read queue length when enqueuing
system.mem_ctrls.avgWrQLen                      22.89                       # Average write queue length when enqueuing
system.mem_ctrls.readRowHits                 18750572                       # Number of row buffer hits during reads
system.mem_ctrls.writeRowHits                 6458071                       # Number of row buffer hits during writes
system.mem_ctrls.readRowHitRate                 75.72                       # Row buffer hit rate for reads
system.mem_ctrls.writeRowHitRate                59.38                       # Row buffer hit rate for writes
system.mem_ctrls.avgGap                   67305031.22                       # Average gap between requests
system.mem_ctrls.pageHitRate                    70.73                       # Row buffer hit rate, read and write combined
system.mem_ctrls_0.actEnergy              37931014380                       # Energy for activate commands per rank (pJ)
system.mem_ctrls_0.preEnergy              20160797085                       # Energy for precharge commands per rank (pJ)
system.mem_ctrls_0.readEnergy             89080560660                       # Energy for read commands per rank (pJ)
system.mem_ctrls_0.writeEnergy            28977796440                       # Energy for write commands per rank (pJ)
system.mem_ctrls_0.refreshEnergy         254633673840.000031                       # Energy for refresh commands per rank (pJ)
system.mem_ctrls_0.actBackEnergy         342143549940                       # Energy for active background per rank (pJ)
system.mem_ctrls_0.preBackEnergy           9646689120                       # Energy for precharge background per rank (pJ)
system.mem_ctrls_0.actPowerDownEnergy    792874048710                       # Energy for active power-down per rank (pJ)
system.mem_ctrls_0.prePowerDownEnergy    182590607520                       # Energy for precharge power-down per rank (pJ)
system.mem_ctrls_0.selfRefreshEnergy     576225349376460                       # Energy for self refresh per rank (pJ)
system.mem_ctrls_0.totalEnergy           577983429145935                       # Total energy per rank (pJ)
system.mem_ctrls_0.averagePower            240.440344                       # Core power per rank (mW)
system.mem_ctrls_0.totalIdleTime         2403078245226409                       # Total Idle time Per DRAM Rank
system.mem_ctrls_0.memoryStateTime::IDLE  12334993499                       # Time in different power states
system.mem_ctrls_0.memoryStateTime::REF  107913718000                       # Time in different power states
system.mem_ctrls_0.memoryStateTime::SREF 2400863992098250                       # Time in different power states
system.mem_ctrls_0.memoryStateTime::PRE_PDN 475495238611                       # Time in different power states
system.mem_ctrls_0.memoryStateTime::ACT  655280796842                       # Time in different power states
system.mem_ctrls_0.memoryStateTime::ACT_PDN 1738758292298                       # Time in different power states
system.mem_ctrls_1.actEnergy              36539556900                       # Energy for activate commands per rank (pJ)
system.mem_ctrls_1.preEnergy              19421212305                       # Energy for precharge commands per rank (pJ)
system.mem_ctrls_1.readEnergy             87721554480                       # Energy for read commands per rank (pJ)
system.mem_ctrls_1.writeEnergy            27797502240                       # Energy for write commands per rank (pJ)
system.mem_ctrls_1.refreshEnergy         253792846320.000031                       # Energy for refresh commands per rank (pJ)
system.mem_ctrls_1.actBackEnergy         342064121580                       # Energy for active background per rank (pJ)
system.mem_ctrls_1.preBackEnergy           9319421280                       # Energy for precharge background per rank (pJ)
system.mem_ctrls_1.actPowerDownEnergy    797569655700                       # Energy for active power-down per rank (pJ)
system.mem_ctrls_1.prePowerDownEnergy    179756831040                       # Energy for precharge power-down per rank (pJ)
system.mem_ctrls_1.selfRefreshEnergy     576223939534020                       # Energy for self refresh per rank (pJ)
system.mem_ctrls_1.totalEnergy           577977967702275                       # Total energy per rank (pJ)
system.mem_ctrls_1.averagePower            240.438072                       # Core power per rank (mW)
system.mem_ctrls_1.totalIdleTime         2403079256871841                       # Total Idle time Per DRAM Rank
system.mem_ctrls_1.memoryStateTime::IDLE  11601576251                       # Time in different power states
system.mem_ctrls_1.memoryStateTime::REF  107548162000                       # Time in different power states
system.mem_ctrls_1.memoryStateTime::SREF 2400862090920750                       # Time in different power states
system.mem_ctrls_1.memoryStateTime::PRE_PDN 468115454132                       # Time in different power states
system.mem_ctrls_1.memoryStateTime::ACT  655368494158                       # Time in different power states
system.mem_ctrls_1.memoryStateTime::ACT_PDN 1749050530209                       # Time in different power states
system.pwrStateResidencyTicks::UNDEFINED 2403853775137500                       # Cumulative time (in ticks) in various power states
system.cf0.dma_read_full_pages                   4783                       # Number of full page size DMA reads (not PRD).
system.cf0.dma_read_bytes                    19591168                       # Number of bytes transfered via DMA reads (not PRD).
system.cf0.dma_read_txs                          4783                       # Number of DMA read transactions (not PRD).
system.cf0.dma_write_full_pages                  7273                       # Number of full page size DMA writes.
system.cf0.dma_write_bytes                   29792768                       # Number of bytes transfered via DMA writes.
system.cf0.dma_write_txs                         7276                       # Number of DMA write transactions.
system.cpu.branchPred.lookups              1383377249                       # Number of BP lookups
system.cpu.branchPred.condPredicted        1109997655                       # Number of conditional branches predicted
system.cpu.branchPred.condIncorrect          78527497                       # Number of conditional branches incorrect
system.cpu.branchPred.BTBLookups            865632192                       # Number of BTB lookups
system.cpu.branchPred.BTBHits               637289030                       # Number of BTB hits
system.cpu.branchPred.BTBCorrect                    0                       # Number of correct BTB predictions (this stat may not work properly.
system.cpu.branchPred.BTBHitPct             73.621226                       # BTB Hit Percentage
system.cpu.branchPred.usedRAS                78872383                       # Number of times the RAS was used to get a target.
system.cpu.branchPred.RASInCorrect             325980                       # Number of incorrect RAS predictions.
system.cpu.branchPred.indirectLookups        22160022                       # Number of indirect predictor lookups.
system.cpu.branchPred.indirectHits           16998105                       # Number of indirect target hits.
system.cpu.branchPred.indirectMisses          5161917                       # Number of indirect misses.
system.cpu.branchPredindirectMispredicted      1924333                       # Number of mispredicted indirect branches.
system.cpu_voltage_domain.voltage                   1                       # Voltage in Volts
system.cpu_clk_domain.clock                       500                       # Clock period in ticks
system.cpu.dstage2_mmu.stage2_tlb.walker.pwrStateResidencyTicks::UNDEFINED 2403853775137500                       # Cumulative time (in ticks) in various power states
system.cpu.dstage2_mmu.stage2_tlb.walker.walks            0                       # Table walker walks requested
system.cpu.dstage2_mmu.stage2_tlb.walker.walkRequestOrigin_Requested::Data            0                       # Table walker requests started/completed, data/inst
system.cpu.dstage2_mmu.stage2_tlb.walker.walkRequestOrigin_Requested::Inst            0                       # Table walker requests started/completed, data/inst
system.cpu.dstage2_mmu.stage2_tlb.walker.walkRequestOrigin_Requested::total            0                       # Table walker requests started/completed, data/inst
system.cpu.dstage2_mmu.stage2_tlb.walker.walkRequestOrigin_Completed::Data            0                       # Table walker requests started/completed, data/inst
system.cpu.dstage2_mmu.stage2_tlb.walker.walkRequestOrigin_Completed::Inst            0                       # Table walker requests started/completed, data/inst
system.cpu.dstage2_mmu.stage2_tlb.walker.walkRequestOrigin_Completed::total            0                       # Table walker requests started/completed, data/inst
system.cpu.dstage2_mmu.stage2_tlb.walker.walkRequestOrigin::total            0                       # Table walker requests started/completed, data/inst
system.cpu.dstage2_mmu.stage2_tlb.inst_hits            0                       # ITB inst hits
system.cpu.dstage2_mmu.stage2_tlb.inst_misses            0                       # ITB inst misses
system.cpu.dstage2_mmu.stage2_tlb.read_hits            0                       # DTB read hits
system.cpu.dstage2_mmu.stage2_tlb.read_misses            0                       # DTB read misses
system.cpu.dstage2_mmu.stage2_tlb.write_hits            0                       # DTB write hits
system.cpu.dstage2_mmu.stage2_tlb.write_misses            0                       # DTB write misses
system.cpu.dstage2_mmu.stage2_tlb.flush_tlb            0                       # Number of times complete TLB was flushed
system.cpu.dstage2_mmu.stage2_tlb.flush_tlb_mva            0                       # Number of times TLB was flushed by MVA
system.cpu.dstage2_mmu.stage2_tlb.flush_tlb_mva_asid            0                       # Number of times TLB was flushed by MVA & ASID
system.cpu.dstage2_mmu.stage2_tlb.flush_tlb_asid            0                       # Number of times TLB was flushed by ASID
system.cpu.dstage2_mmu.stage2_tlb.flush_entries            0                       # Number of entries that have been flushed from TLB
system.cpu.dstage2_mmu.stage2_tlb.align_faults            0                       # Number of TLB faults due to alignment restrictions
system.cpu.dstage2_mmu.stage2_tlb.prefetch_faults            0                       # Number of TLB faults due to prefetch
system.cpu.dstage2_mmu.stage2_tlb.domain_faults            0                       # Number of TLB faults due to domain restrictions
system.cpu.dstage2_mmu.stage2_tlb.perms_faults            0                       # Number of TLB faults due to permissions restrictions
system.cpu.dstage2_mmu.stage2_tlb.read_accesses            0                       # DTB read accesses
system.cpu.dstage2_mmu.stage2_tlb.write_accesses            0                       # DTB write accesses
system.cpu.dstage2_mmu.stage2_tlb.inst_accesses            0                       # ITB inst accesses
system.cpu.dstage2_mmu.stage2_tlb.hits              0                       # DTB hits
system.cpu.dstage2_mmu.stage2_tlb.misses            0                       # DTB misses
system.cpu.dstage2_mmu.stage2_tlb.accesses            0                       # DTB accesses
system.cpu.dtb.walker.pwrStateResidencyTicks::UNDEFINED 2403853775137500                       # Cumulative time (in ticks) in various power states
system.cpu.dtb.walker.walks                   9854460                       # Table walker walks requested
system.cpu.dtb.walker.walksLong               9854460                       # Table walker walks initiated with long descriptors
system.cpu.dtb.walker.walksLongTerminationLevel::Level2        47166                       # Level at which table walker walks with long descriptors terminate
system.cpu.dtb.walker.walksLongTerminationLevel::Level3      1372984                       # Level at which table walker walks with long descriptors terminate
system.cpu.dtb.walker.walksSquashedBefore      1333814                       # Table walks squashed before starting
system.cpu.dtb.walker.walkWaitTime::samples      8520646                       # Table walker wait (enqueue to first request) latency
system.cpu.dtb.walker.walkWaitTime::mean   384.150451                       # Table walker wait (enqueue to first request) latency
system.cpu.dtb.walker.walkWaitTime::stdev  6125.232289                       # Table walker wait (enqueue to first request) latency
system.cpu.dtb.walker.walkWaitTime::0-131071      8517495     99.96%     99.96% # Table walker wait (enqueue to first request) latency
system.cpu.dtb.walker.walkWaitTime::131072-262143         2497      0.03%     99.99% # Table walker wait (enqueue to first request) latency
system.cpu.dtb.walker.walkWaitTime::262144-393215          333      0.00%    100.00% # Table walker wait (enqueue to first request) latency
system.cpu.dtb.walker.walkWaitTime::393216-524287           97      0.00%    100.00% # Table walker wait (enqueue to first request) latency
system.cpu.dtb.walker.walkWaitTime::524288-655359          207      0.00%    100.00% # Table walker wait (enqueue to first request) latency
system.cpu.dtb.walker.walkWaitTime::655360-786431           14      0.00%    100.00% # Table walker wait (enqueue to first request) latency
system.cpu.dtb.walker.walkWaitTime::786432-917503            1      0.00%    100.00% # Table walker wait (enqueue to first request) latency
system.cpu.dtb.walker.walkWaitTime::1.04858e+06-1.17965e+06            2      0.00%    100.00% # Table walker wait (enqueue to first request) latency
system.cpu.dtb.walker.walkWaitTime::total      8520646                       # Table walker wait (enqueue to first request) latency
system.cpu.dtb.walker.walkCompletionTime::samples      2579807                       # Table walker service (enqueue to completion) latency
system.cpu.dtb.walker.walkCompletionTime::mean 14864.594193                       # Table walker service (enqueue to completion) latency
system.cpu.dtb.walker.walkCompletionTime::gmean  6987.501155                       # Table walker service (enqueue to completion) latency
system.cpu.dtb.walker.walkCompletionTime::stdev 35844.880261                       # Table walker service (enqueue to completion) latency
system.cpu.dtb.walker.walkCompletionTime::0-131071      2550296     98.86%     98.86% # Table walker service (enqueue to completion) latency
system.cpu.dtb.walker.walkCompletionTime::131072-262143        20969      0.81%     99.67% # Table walker service (enqueue to completion) latency
system.cpu.dtb.walker.walkCompletionTime::262144-393215         4490      0.17%     99.84% # Table walker service (enqueue to completion) latency
system.cpu.dtb.walker.walkCompletionTime::393216-524287          683      0.03%     99.87% # Table walker service (enqueue to completion) latency
system.cpu.dtb.walker.walkCompletionTime::524288-655359         3189      0.12%     99.99% # Table walker service (enqueue to completion) latency
system.cpu.dtb.walker.walkCompletionTime::655360-786431          154      0.01%    100.00% # Table walker service (enqueue to completion) latency
system.cpu.dtb.walker.walkCompletionTime::786432-917503           14      0.00%    100.00% # Table walker service (enqueue to completion) latency
system.cpu.dtb.walker.walkCompletionTime::917504-1.04858e+06            3      0.00%    100.00% # Table walker service (enqueue to completion) latency
system.cpu.dtb.walker.walkCompletionTime::1.04858e+06-1.17965e+06            6      0.00%    100.00% # Table walker service (enqueue to completion) latency
system.cpu.dtb.walker.walkCompletionTime::1.17965e+06-1.31072e+06            3      0.00%    100.00% # Table walker service (enqueue to completion) latency
system.cpu.dtb.walker.walkCompletionTime::total      2579807                       # Table walker service (enqueue to completion) latency
system.cpu.dtb.walker.walksPending::samples 5608442925540                       # Table walker pending requests distribution
system.cpu.dtb.walker.walksPending::mean     0.807661                       # Table walker pending requests distribution
system.cpu.dtb.walker.walksPending::stdev     0.418327                       # Table walker pending requests distribution
system.cpu.dtb.walker.walksPending::0-1  5603772141040     99.92%     99.92% # Table walker pending requests distribution
system.cpu.dtb.walker.walksPending::2-3    2582919500      0.05%     99.96% # Table walker pending requests distribution
system.cpu.dtb.walker.walksPending::4-5     898850500      0.02%     99.98% # Table walker pending requests distribution
system.cpu.dtb.walker.walksPending::6-7     402851000      0.01%     99.99% # Table walker pending requests distribution
system.cpu.dtb.walker.walksPending::8-9     586090500      0.01%    100.00% # Table walker pending requests distribution
system.cpu.dtb.walker.walksPending::10-11     62834000      0.00%    100.00% # Table walker pending requests distribution
system.cpu.dtb.walker.walksPending::12-13     39720500      0.00%    100.00% # Table walker pending requests distribution
system.cpu.dtb.walker.walksPending::14-15     95671000      0.00%    100.00% # Table walker pending requests distribution
system.cpu.dtb.walker.walksPending::16-17      1511500      0.00%    100.00% # Table walker pending requests distribution
system.cpu.dtb.walker.walksPending::18-19       170000      0.00%    100.00% # Table walker pending requests distribution
system.cpu.dtb.walker.walksPending::20-21         3000      0.00%    100.00% # Table walker pending requests distribution
system.cpu.dtb.walker.walksPending::22-23        66000      0.00%    100.00% # Table walker pending requests distribution
system.cpu.dtb.walker.walksPending::24-25         1500      0.00%    100.00% # Table walker pending requests distribution
system.cpu.dtb.walker.walksPending::26-27        95500      0.00%    100.00% # Table walker pending requests distribution
system.cpu.dtb.walker.walksPending::total 5608442925540                       # Table walker pending requests distribution
system.cpu.dtb.walker.walkPageSizes::4K       1372984     96.68%     96.68% # Table walker page sizes translated
system.cpu.dtb.walker.walkPageSizes::2M         47166      3.32%    100.00% # Table walker page sizes translated
system.cpu.dtb.walker.walkPageSizes::total      1420150                       # Table walker page sizes translated
system.cpu.dtb.walker.walkRequestOrigin_Requested::Data      9854460                       # Table walker requests started/completed, data/inst
system.cpu.dtb.walker.walkRequestOrigin_Requested::Inst            0                       # Table walker requests started/completed, data/inst
system.cpu.dtb.walker.walkRequestOrigin_Requested::total      9854460                       # Table walker requests started/completed, data/inst
system.cpu.dtb.walker.walkRequestOrigin_Completed::Data      1420150                       # Table walker requests started/completed, data/inst
system.cpu.dtb.walker.walkRequestOrigin_Completed::Inst            0                       # Table walker requests started/completed, data/inst
system.cpu.dtb.walker.walkRequestOrigin_Completed::total      1420150                       # Table walker requests started/completed, data/inst
system.cpu.dtb.walker.walkRequestOrigin::total     11274610                       # Table walker requests started/completed, data/inst
system.cpu.dtb.inst_hits                            0                       # ITB inst hits
system.cpu.dtb.inst_misses                          0                       # ITB inst misses
system.cpu.dtb.read_hits                   1760976684                       # DTB read hits
system.cpu.dtb.read_misses                    8904401                       # DTB read misses
system.cpu.dtb.write_hits                   598723974                       # DTB write hits
system.cpu.dtb.write_misses                    950059                       # DTB write misses
system.cpu.dtb.flush_tlb                           13                       # Number of times complete TLB was flushed
system.cpu.dtb.flush_tlb_mva                        6                       # Number of times TLB was flushed by MVA
system.cpu.dtb.flush_tlb_mva_asid              114773                       # Number of times TLB was flushed by MVA & ASID
system.cpu.dtb.flush_tlb_asid                     706                       # Number of times TLB was flushed by ASID
system.cpu.dtb.flush_entries                    92526                       # Number of entries that have been flushed from TLB
system.cpu.dtb.align_faults                      1228                       # Number of TLB faults due to alignment restrictions
system.cpu.dtb.prefetch_faults                  30089                       # Number of TLB faults due to prefetch
system.cpu.dtb.domain_faults                        0                       # Number of TLB faults due to domain restrictions
system.cpu.dtb.perms_faults                    186401                       # Number of TLB faults due to permissions restrictions
system.cpu.dtb.read_accesses               1769881085                       # DTB read accesses
system.cpu.dtb.write_accesses               599674033                       # DTB write accesses
system.cpu.dtb.inst_accesses                        0                       # ITB inst accesses
system.cpu.dtb.hits                        2359700658                       # DTB hits
system.cpu.dtb.misses                         9854460                       # DTB misses
system.cpu.dtb.accesses                    2369555118                       # DTB accesses
system.cpu.istage2_mmu.stage2_tlb.walker.pwrStateResidencyTicks::UNDEFINED 2403853775137500                       # Cumulative time (in ticks) in various power states
system.cpu.istage2_mmu.stage2_tlb.walker.walks            0                       # Table walker walks requested
system.cpu.istage2_mmu.stage2_tlb.walker.walkRequestOrigin_Requested::Data            0                       # Table walker requests started/completed, data/inst
system.cpu.istage2_mmu.stage2_tlb.walker.walkRequestOrigin_Requested::Inst            0                       # Table walker requests started/completed, data/inst
system.cpu.istage2_mmu.stage2_tlb.walker.walkRequestOrigin_Requested::total            0                       # Table walker requests started/completed, data/inst
system.cpu.istage2_mmu.stage2_tlb.walker.walkRequestOrigin_Completed::Data            0                       # Table walker requests started/completed, data/inst
system.cpu.istage2_mmu.stage2_tlb.walker.walkRequestOrigin_Completed::Inst            0                       # Table walker requests started/completed, data/inst
system.cpu.istage2_mmu.stage2_tlb.walker.walkRequestOrigin_Completed::total            0                       # Table walker requests started/completed, data/inst
system.cpu.istage2_mmu.stage2_tlb.walker.walkRequestOrigin::total            0                       # Table walker requests started/completed, data/inst
system.cpu.istage2_mmu.stage2_tlb.inst_hits            0                       # ITB inst hits
system.cpu.istage2_mmu.stage2_tlb.inst_misses            0                       # ITB inst misses
system.cpu.istage2_mmu.stage2_tlb.read_hits            0                       # DTB read hits
system.cpu.istage2_mmu.stage2_tlb.read_misses            0                       # DTB read misses
system.cpu.istage2_mmu.stage2_tlb.write_hits            0                       # DTB write hits
system.cpu.istage2_mmu.stage2_tlb.write_misses            0                       # DTB write misses
system.cpu.istage2_mmu.stage2_tlb.flush_tlb            0                       # Number of times complete TLB was flushed
system.cpu.istage2_mmu.stage2_tlb.flush_tlb_mva            0                       # Number of times TLB was flushed by MVA
system.cpu.istage2_mmu.stage2_tlb.flush_tlb_mva_asid            0                       # Number of times TLB was flushed by MVA & ASID
system.cpu.istage2_mmu.stage2_tlb.flush_tlb_asid            0                       # Number of times TLB was flushed by ASID
system.cpu.istage2_mmu.stage2_tlb.flush_entries            0                       # Number of entries that have been flushed from TLB
system.cpu.istage2_mmu.stage2_tlb.align_faults            0                       # Number of TLB faults due to alignment restrictions
system.cpu.istage2_mmu.stage2_tlb.prefetch_faults            0                       # Number of TLB faults due to prefetch
system.cpu.istage2_mmu.stage2_tlb.domain_faults            0                       # Number of TLB faults due to domain restrictions
system.cpu.istage2_mmu.stage2_tlb.perms_faults            0                       # Number of TLB faults due to permissions restrictions
system.cpu.istage2_mmu.stage2_tlb.read_accesses            0                       # DTB read accesses
system.cpu.istage2_mmu.stage2_tlb.write_accesses            0                       # DTB write accesses
system.cpu.istage2_mmu.stage2_tlb.inst_accesses            0                       # ITB inst accesses
system.cpu.istage2_mmu.stage2_tlb.hits              0                       # DTB hits
system.cpu.istage2_mmu.stage2_tlb.misses            0                       # DTB misses
system.cpu.istage2_mmu.stage2_tlb.accesses            0                       # DTB accesses
system.cpu.itb.walker.pwrStateResidencyTicks::UNDEFINED 2403853775137500                       # Cumulative time (in ticks) in various power states
system.cpu.itb.walker.walks                    415394                       # Table walker walks requested
system.cpu.itb.walker.walksLong                415394                       # Table walker walks initiated with long descriptors
system.cpu.itb.walker.walksLongTerminationLevel::Level2         6155                       # Level at which table walker walks with long descriptors terminate
system.cpu.itb.walker.walksLongTerminationLevel::Level3       287505                       # Level at which table walker walks with long descriptors terminate
system.cpu.itb.walker.walksSquashedBefore        27465                       # Table walks squashed before starting
system.cpu.itb.walker.walkWaitTime::samples       387929                       # Table walker wait (enqueue to first request) latency
system.cpu.itb.walker.walkWaitTime::mean   522.171583                       # Table walker wait (enqueue to first request) latency
system.cpu.itb.walker.walkWaitTime::stdev  6595.939329                       # Table walker wait (enqueue to first request) latency
system.cpu.itb.walker.walkWaitTime::0-65535       386889     99.73%     99.73% # Table walker wait (enqueue to first request) latency
system.cpu.itb.walker.walkWaitTime::65536-131071          871      0.22%     99.96% # Table walker wait (enqueue to first request) latency
system.cpu.itb.walker.walkWaitTime::131072-196607          106      0.03%     99.98% # Table walker wait (enqueue to first request) latency
system.cpu.itb.walker.walkWaitTime::196608-262143           35      0.01%     99.99% # Table walker wait (enqueue to first request) latency
system.cpu.itb.walker.walkWaitTime::262144-327679           21      0.01%    100.00% # Table walker wait (enqueue to first request) latency
system.cpu.itb.walker.walkWaitTime::327680-393215            3      0.00%    100.00% # Table walker wait (enqueue to first request) latency
system.cpu.itb.walker.walkWaitTime::393216-458751            1      0.00%    100.00% # Table walker wait (enqueue to first request) latency
system.cpu.itb.walker.walkWaitTime::458752-524287            2      0.00%    100.00% # Table walker wait (enqueue to first request) latency
system.cpu.itb.walker.walkWaitTime::589824-655359            1      0.00%    100.00% # Table walker wait (enqueue to first request) latency
system.cpu.itb.walker.walkWaitTime::total       387929                       # Table walker wait (enqueue to first request) latency
system.cpu.itb.walker.walkCompletionTime::samples       321125                       # Table walker service (enqueue to completion) latency
system.cpu.itb.walker.walkCompletionTime::mean 15193.073289                       # Table walker service (enqueue to completion) latency
system.cpu.itb.walker.walkCompletionTime::gmean  6807.115129                       # Table walker service (enqueue to completion) latency
system.cpu.itb.walker.walkCompletionTime::stdev 32861.901298                       # Table walker service (enqueue to completion) latency
system.cpu.itb.walker.walkCompletionTime::0-65535       295923     92.15%     92.15% # Table walker service (enqueue to completion) latency
system.cpu.itb.walker.walkCompletionTime::65536-131071        20866      6.50%     98.65% # Table walker service (enqueue to completion) latency
system.cpu.itb.walker.walkCompletionTime::131072-196607         2854      0.89%     99.54% # Table walker service (enqueue to completion) latency
system.cpu.itb.walker.walkCompletionTime::196608-262143          819      0.26%     99.79% # Table walker service (enqueue to completion) latency
system.cpu.itb.walker.walkCompletionTime::262144-327679          301      0.09%     99.89% # Table walker service (enqueue to completion) latency
system.cpu.itb.walker.walkCompletionTime::327680-393215          197      0.06%     99.95% # Table walker service (enqueue to completion) latency
system.cpu.itb.walker.walkCompletionTime::393216-458751           57      0.02%     99.97% # Table walker service (enqueue to completion) latency
system.cpu.itb.walker.walkCompletionTime::458752-524287           21      0.01%     99.97% # Table walker service (enqueue to completion) latency
system.cpu.itb.walker.walkCompletionTime::524288-589823            4      0.00%     99.97% # Table walker service (enqueue to completion) latency
system.cpu.itb.walker.walkCompletionTime::589824-655359           83      0.03%    100.00% # Table walker service (enqueue to completion) latency
system.cpu.itb.walker.walkCompletionTime::total       321125                       # Table walker service (enqueue to completion) latency
system.cpu.itb.walker.walksPending::samples 1528241527340                       # Table walker pending requests distribution
system.cpu.itb.walker.walksPending::mean     0.956674                       # Table walker pending requests distribution
system.cpu.itb.walker.walksPending::stdev     0.203963                       # Table walker pending requests distribution
system.cpu.itb.walker.walksPending::0     66327258652      4.34%      4.34% # Table walker pending requests distribution
system.cpu.itb.walker.walksPending::1    1461800502688     95.65%     99.99% # Table walker pending requests distribution
system.cpu.itb.walker.walksPending::2       112703500      0.01%    100.00% # Table walker pending requests distribution
system.cpu.itb.walker.walksPending::3          954000      0.00%    100.00% # Table walker pending requests distribution
system.cpu.itb.walker.walksPending::4          106000      0.00%    100.00% # Table walker pending requests distribution
system.cpu.itb.walker.walksPending::5            2500      0.00%    100.00% # Table walker pending requests distribution
system.cpu.itb.walker.walksPending::total 1528241527340                       # Table walker pending requests distribution
system.cpu.itb.walker.walkPageSizes::4K        287505     97.90%     97.90% # Table walker page sizes translated
system.cpu.itb.walker.walkPageSizes::2M          6155      2.10%    100.00% # Table walker page sizes translated
system.cpu.itb.walker.walkPageSizes::total       293660                       # Table walker page sizes translated
system.cpu.itb.walker.walkRequestOrigin_Requested::Data            0                       # Table walker requests started/completed, data/inst
system.cpu.itb.walker.walkRequestOrigin_Requested::Inst       415394                       # Table walker requests started/completed, data/inst
system.cpu.itb.walker.walkRequestOrigin_Requested::total       415394                       # Table walker requests started/completed, data/inst
system.cpu.itb.walker.walkRequestOrigin_Completed::Data            0                       # Table walker requests started/completed, data/inst
system.cpu.itb.walker.walkRequestOrigin_Completed::Inst       293660                       # Table walker requests started/completed, data/inst
system.cpu.itb.walker.walkRequestOrigin_Completed::total       293660                       # Table walker requests started/completed, data/inst
system.cpu.itb.walker.walkRequestOrigin::total       709054                       # Table walker requests started/completed, data/inst
system.cpu.itb.inst_hits                   2770535047                       # ITB inst hits
system.cpu.itb.inst_misses                     415394                       # ITB inst misses
system.cpu.itb.read_hits                            0                       # DTB read hits
system.cpu.itb.read_misses                          0                       # DTB read misses
system.cpu.itb.write_hits                           0                       # DTB write hits
system.cpu.itb.write_misses                         0                       # DTB write misses
system.cpu.itb.flush_tlb                           13                       # Number of times complete TLB was flushed
system.cpu.itb.flush_tlb_mva                        6                       # Number of times TLB was flushed by MVA
system.cpu.itb.flush_tlb_mva_asid              114773                       # Number of times TLB was flushed by MVA & ASID
system.cpu.itb.flush_tlb_asid                     706                       # Number of times TLB was flushed by ASID
system.cpu.itb.flush_entries                    42006                       # Number of entries that have been flushed from TLB
system.cpu.itb.align_faults                         0                       # Number of TLB faults due to alignment restrictions
system.cpu.itb.prefetch_faults                      0                       # Number of TLB faults due to prefetch
system.cpu.itb.domain_faults                        0                       # Number of TLB faults due to domain restrictions
system.cpu.itb.perms_faults                    681502                       # Number of TLB faults due to permissions restrictions
system.cpu.itb.read_accesses                        0                       # DTB read accesses
system.cpu.itb.write_accesses                       0                       # DTB write accesses
system.cpu.itb.inst_accesses               2770950441                       # ITB inst accesses
system.cpu.itb.hits                        2770535047                       # DTB hits
system.cpu.itb.misses                          415394                       # DTB misses
system.cpu.itb.accesses                    2770950441                       # DTB accesses
system.cpu.numPwrStateTransitions               47790                       # Number of power state transitions
system.cpu.pwrStateClkGateDist::samples         23895                       # Distribution of time spent in the clock gated state
system.cpu.pwrStateClkGateDist::mean     100384959951.748016                       # Distribution of time spent in the clock gated state
system.cpu.pwrStateClkGateDist::stdev    288212494499.807922                       # Distribution of time spent in the clock gated state
system.cpu.pwrStateClkGateDist::underflows        20757     86.87%     86.87% # Distribution of time spent in the clock gated state
system.cpu.pwrStateClkGateDist::1000-5e+10          262      1.10%     87.96% # Distribution of time spent in the clock gated state
system.cpu.pwrStateClkGateDist::5e+10-1e+11           59      0.25%     88.21% # Distribution of time spent in the clock gated state
system.cpu.pwrStateClkGateDist::1e+11-1.5e+11           55      0.23%     88.44% # Distribution of time spent in the clock gated state
system.cpu.pwrStateClkGateDist::1.5e+11-2e+11           55      0.23%     88.67% # Distribution of time spent in the clock gated state
system.cpu.pwrStateClkGateDist::2e+11-2.5e+11           54      0.23%     88.90% # Distribution of time spent in the clock gated state
system.cpu.pwrStateClkGateDist::2.5e+11-3e+11           56      0.23%     89.13% # Distribution of time spent in the clock gated state
system.cpu.pwrStateClkGateDist::3e+11-3.5e+11           56      0.23%     89.37% # Distribution of time spent in the clock gated state
system.cpu.pwrStateClkGateDist::3.5e+11-4e+11           47      0.20%     89.56% # Distribution of time spent in the clock gated state
system.cpu.pwrStateClkGateDist::4e+11-4.5e+11           52      0.22%     89.78% # Distribution of time spent in the clock gated state
system.cpu.pwrStateClkGateDist::4.5e+11-5e+11           49      0.21%     89.99% # Distribution of time spent in the clock gated state
system.cpu.pwrStateClkGateDist::5e+11-5.5e+11           47      0.20%     90.18% # Distribution of time spent in the clock gated state
system.cpu.pwrStateClkGateDist::5.5e+11-6e+11           50      0.21%     90.39% # Distribution of time spent in the clock gated state
system.cpu.pwrStateClkGateDist::6e+11-6.5e+11           45      0.19%     90.58% # Distribution of time spent in the clock gated state
system.cpu.pwrStateClkGateDist::6.5e+11-7e+11           53      0.22%     90.80% # Distribution of time spent in the clock gated state
system.cpu.pwrStateClkGateDist::7e+11-7.5e+11           53      0.22%     91.02% # Distribution of time spent in the clock gated state
system.cpu.pwrStateClkGateDist::7.5e+11-8e+11           53      0.22%     91.25% # Distribution of time spent in the clock gated state
system.cpu.pwrStateClkGateDist::8e+11-8.5e+11           54      0.23%     91.47% # Distribution of time spent in the clock gated state
system.cpu.pwrStateClkGateDist::8.5e+11-9e+11           54      0.23%     91.70% # Distribution of time spent in the clock gated state
system.cpu.pwrStateClkGateDist::9e+11-9.5e+11           52      0.22%     91.91% # Distribution of time spent in the clock gated state
system.cpu.pwrStateClkGateDist::9.5e+11-1e+12         1932      8.09%    100.00% # Distribution of time spent in the clock gated state
system.cpu.pwrStateClkGateDist::min_value          501                       # Distribution of time spent in the clock gated state
system.cpu.pwrStateClkGateDist::max_value 999974749920                       # Distribution of time spent in the clock gated state
system.cpu.pwrStateClkGateDist::total           23895                       # Distribution of time spent in the clock gated state
system.cpu.pwrStateResidencyTicks::ON    5155157090481                       # Cumulative time (in ticks) in various power states
system.cpu.pwrStateResidencyTicks::CLK_GATED 2398698618047019                       # Cumulative time (in ticks) in various power states
system.cpu.numCycles                      10310316818                       # number of cpu cycles simulated
system.cpu.numWorkItemsStarted                      0                       # number of work items this cpu started
system.cpu.numWorkItemsCompleted                    0                       # number of work items this cpu completed
system.cpu.fetch.icacheStallCycles         3424318586                       # Number of cycles fetch is stalled on an Icache miss
system.cpu.fetch.Insts                     8407936717                       # Number of instructions fetch has processed
system.cpu.fetch.Branches                  1383377249                       # Number of branches that fetch encountered
system.cpu.fetch.predictedBranches          733159518                       # Number of branches that fetch has predicted taken
system.cpu.fetch.Cycles                    6270230939                       # Number of cycles fetch has run and was not squashing or blocked
system.cpu.fetch.SquashCycles               159608924                       # Number of cycles fetch has spent squashing
system.cpu.fetch.TlbCycles                    5307277                       # Number of cycles fetch has spent waiting for tlb
system.cpu.fetch.MiscStallCycles             13101841                       # Number of cycles fetch has spent waiting on interrupts, or bad addresses, or out of MSHRs
system.cpu.fetch.PendingTrapStallCycles      15685522                       # Number of stall cycles due to pending traps
system.cpu.fetch.PendingQuiesceStallCycles      3238427                       # Number of stall cycles due to pending quiesce instructions
system.cpu.fetch.IcacheWaitRetryStallCycles     26087314                       # Number of stall cycles due to full MSHR
system.cpu.fetch.CacheLines                2769791350                       # Number of cache lines fetched
system.cpu.fetch.IcacheSquashes              37976854                       # Number of outstanding Icache misses that were squashed
system.cpu.fetch.ItlbSquashes                   75312                       # Number of outstanding ITLB misses that were squashed
system.cpu.fetch.rateDist::samples         9837774368                       # Number of instructions fetched each cycle (Total)
system.cpu.fetch.rateDist::mean              0.909803                       # Number of instructions fetched each cycle (Total)
system.cpu.fetch.rateDist::stdev             1.190715                       # Number of instructions fetched each cycle (Total)
system.cpu.fetch.rateDist::underflows               0      0.00%      0.00% # Number of instructions fetched each cycle (Total)
system.cpu.fetch.rateDist::0               5453696619     55.44%     55.44% # Number of instructions fetched each cycle (Total)
system.cpu.fetch.rateDist::1               1821715617     18.52%     73.95% # Number of instructions fetched each cycle (Total)
system.cpu.fetch.rateDist::2                558366704      5.68%     79.63% # Number of instructions fetched each cycle (Total)
system.cpu.fetch.rateDist::3               2003995428     20.37%    100.00% # Number of instructions fetched each cycle (Total)
system.cpu.fetch.rateDist::overflows                0      0.00%    100.00% # Number of instructions fetched each cycle (Total)
system.cpu.fetch.rateDist::min_value                0                       # Number of instructions fetched each cycle (Total)
system.cpu.fetch.rateDist::max_value                3                       # Number of instructions fetched each cycle (Total)
system.cpu.fetch.rateDist::total           9837774368                       # Number of instructions fetched each cycle (Total)
system.cpu.fetch.branchRate                  0.134174                       # Number of branch fetches per cycle
system.cpu.fetch.rate                        0.815488                       # Number of inst fetches per cycle
system.cpu.decode.IdleCycles               2713094607                       # Number of cycles decode is idle
system.cpu.decode.BlockedCycles            3328621127                       # Number of cycles decode is blocked
system.cpu.decode.RunCycles                3292536088                       # Number of cycles decode is running
system.cpu.decode.UnblockCycles             433813684                       # Number of cycles decode is unblocking
system.cpu.decode.SquashCycles               69708862                       # Number of cycles decode is squashing
system.cpu.decode.BranchResolved            598927411                       # Number of times decode resolved a branch
system.cpu.decode.BranchMispred              10243692                       # Number of times decode detected a branch misprediction
system.cpu.decode.DecodedInsts             8345486034                       # Number of instructions handled by decode
system.cpu.decode.SquashedInsts             186793196                       # Number of squashed instructions handled by decode
[...]
system.ruby.Directory_Controller.DMA_ACK |        8856    100.00%    100.00% |           0      0.00%    100.00%
system.ruby.Directory_Controller.DMA_ACK::total         8856                      
system.ruby.Directory_Controller.Data    |        9292    100.00%    100.00% |           0      0.00%    100.00%
system.ruby.Directory_Controller.Data::total         9292                      
system.ruby.Directory_Controller.I.GETX  |     6170267    100.00%    100.00% |           0      0.00%    100.00%
system.ruby.Directory_Controller.I.GETX::total      6170267                      
system.ruby.Directory_Controller.I.GETS  |     5174465    100.00%    100.00% |           9      0.00%    100.00%
system.ruby.Directory_Controller.I.GETS::total      5174474                      
system.ruby.Directory_Controller.I.Memory_Ack |    10424149    100.00%    100.00% |           0      0.00%    100.00%
system.ruby.Directory_Controller.I.Memory_Ack::total     10424149                      
system.ruby.Directory_Controller.I.DMA_READ |       11582    100.00%    100.00% |           0      0.00%    100.00%
system.ruby.Directory_Controller.I.DMA_READ::total        11582                      
system.ruby.Directory_Controller.I.DMA_WRITE |      447497    100.00%    100.00% |           0      0.00%    100.00%
system.ruby.Directory_Controller.I.DMA_WRITE::total       447497                      
system.ruby.Directory_Controller.S.GETX  |     4255135    100.00%    100.00% |           0      0.00%    100.00%
system.ruby.Directory_Controller.S.GETX::total      4255135                      
system.ruby.Directory_Controller.S.GETS  |     9226705    100.00%    100.00% |           0      0.00%    100.00%
system.ruby.Directory_Controller.S.GETS::total      9226705                      
system.ruby.Directory_Controller.S.DMA_READ |      292627    100.00%    100.00% |           0      0.00%    100.00%
system.ruby.Directory_Controller.S.DMA_READ::total       292627                      
system.ruby.Directory_Controller.S.DMA_WRITE |        8723    100.00%    100.00% |           0      0.00%    100.00%
system.ruby.Directory_Controller.S.DMA_WRITE::total         8723                      
system.ruby.Directory_Controller.M.PUTX  |    10412145    100.00%    100.00% |           0      0.00%    100.00%
system.ruby.Directory_Controller.M.PUTX::total     10412145                      
system.ruby.Directory_Controller.M.DMA_READ |        8856    100.00%    100.00% |           0      0.00%    100.00%
system.ruby.Directory_Controller.M.DMA_READ::total         8856                      
system.ruby.Directory_Controller.M.DMA_WRITE |        9292    100.00%    100.00% |           0      0.00%    100.00%
system.ruby.Directory_Controller.M.DMA_WRITE::total         9292                      
system.ruby.Directory_Controller.IS.GETX |          10    100.00%    100.00% |           0      0.00%    100.00%
system.ruby.Directory_Controller.IS.GETX::total           10                      
system.ruby.Directory_Controller.IS.Unblock |     5174464    100.00%    100.00% |           9      0.00%    100.00%
system.ruby.Directory_Controller.IS.Unblock::total      5174473                      
system.ruby.Directory_Controller.IS.Memory_Data |     5174465    100.00%    100.00% |           9      0.00%    100.00%
system.ruby.Directory_Controller.IS.Memory_Data::total      5174474                      
system.ruby.Directory_Controller.IS.Memory_Ack |        1132    100.00%    100.00% |           0      0.00%    100.00%
system.ruby.Directory_Controller.IS.Memory_Ack::total         1132                      
system.ruby.Directory_Controller.SS.GETX |           1    100.00%    100.00% |           0      0.00%    100.00%
system.ruby.Directory_Controller.SS.GETX::total            1                      
system.ruby.Directory_Controller.SS.Last_Unblock |     9226705    100.00%    100.00% |           0      0.00%    100.00%
system.ruby.Directory_Controller.SS.Last_Unblock::total      9226705                      
system.ruby.Directory_Controller.SS.Memory_Data |     9226705    100.00%    100.00% |           0      0.00%    100.00%
system.ruby.Directory_Controller.SS.Memory_Data::total      9226705                      
system.ruby.Directory_Controller.MM.Exclusive_Unblock |    10425402    100.00%    100.00% |           0      0.00%    100.00%
system.ruby.Directory_Controller.MM.Exclusive_Unblock::total     10425402                      
system.ruby.Directory_Controller.MM.Memory_Data |    10425402    100.00%    100.00% |           0      0.00%    100.00%
system.ruby.Directory_Controller.MM.Memory_Data::total     10425402                      
system.ruby.Directory_Controller.MM.Memory_Ack |         276    100.00%    100.00% |           0      0.00%    100.00%
system.ruby.Directory_Controller.MM.Memory_Ack::total          276                      
system.ruby.Directory_Controller.MI.Dirty_Writeback |    10412145    100.00%    100.00% |           0      0.00%    100.00%
system.ruby.Directory_Controller.MI.Dirty_Writeback::total     10412145                      
system.ruby.Directory_Controller.XI_M.Memory_Data |       11582    100.00%    100.00% |           0      0.00%    100.00%
system.ruby.Directory_Controller.XI_M.Memory_Data::total        11582                      
system.ruby.Directory_Controller.XI_U.Exclusive_Unblock |      465512    100.00%    100.00% |           0      0.00%    100.00%
system.ruby.Directory_Controller.XI_U.Exclusive_Unblock::total       465512                      
system.ruby.Directory_Controller.XI_U.Memory_Ack |      452100    100.00%    100.00% |           0      0.00%    100.00%
system.ruby.Directory_Controller.XI_U.Memory_Ack::total       452100                      
system.ruby.Directory_Controller.OI_D.Data |        9292    100.00%    100.00% |           0      0.00%    100.00%
system.ruby.Directory_Controller.OI_D.Data::total         9292                      
system.ruby.Directory_Controller.MD.DMA_ACK |        8856    100.00%    100.00% |           0      0.00%    100.00%
system.ruby.Directory_Controller.MD.DMA_ACK::total         8856                      
system.ruby.DMA_Controller.ReadRequest   |           0      0.00%      0.00% |     9405867    100.00%    100.00% |           0      0.00%    100.00%
system.ruby.DMA_Controller.ReadRequest::total      9405867                      
system.ruby.DMA_Controller.WriteRequest  |           0      0.00%      0.00% |    14317335    100.00%    100.00% |           0      0.00%    100.00%
system.ruby.DMA_Controller.WriteRequest::total     14317335                      
system.ruby.DMA_Controller.Data          |           0      0.00%      0.00% |      313065    100.00%    100.00% |           0      0.00%    100.00%
system.ruby.DMA_Controller.Data::total         313065                      
system.ruby.DMA_Controller.DMA_Ack       |           0      0.00%      0.00% |      465512    100.00%    100.00% |           0      0.00%    100.00%
system.ruby.DMA_Controller.DMA_Ack::total       465512                      
system.ruby.DMA_Controller.Inv_Ack       |           0      0.00%      0.00% |        8723    100.00%    100.00% |           0      0.00%    100.00%
system.ruby.DMA_Controller.Inv_Ack::total         8723                      
system.ruby.DMA_Controller.All_Acks      |           0      0.00%      0.00% |      465512    100.00%    100.00% |           0      0.00%    100.00%
system.ruby.DMA_Controller.All_Acks::total       465512                      
system.ruby.DMA_Controller.READY.ReadRequest |           0      0.00%      0.00% |      313065    100.00%    100.00% |           0      0.00%    100.00%
system.ruby.DMA_Controller.READY.ReadRequest::total       313065                      
system.ruby.DMA_Controller.READY.WriteRequest |           0      0.00%      0.00% |      465512    100.00%    100.00% |           0      0.00%    100.00%
system.ruby.DMA_Controller.READY.WriteRequest::total       465512                      
system.ruby.DMA_Controller.BUSY_RD.ReadRequest |           0      0.00%      0.00% |     9092802    100.00%    100.00% |           0      0.00%    100.00%
system.ruby.DMA_Controller.BUSY_RD.ReadRequest::total      9092802                      
system.ruby.DMA_Controller.BUSY_RD.Data  |           0      0.00%      0.00% |      313065    100.00%    100.00% |           0      0.00%    100.00%
system.ruby.DMA_Controller.BUSY_RD.Data::total       313065                      
system.ruby.DMA_Controller.BUSY_WR.WriteRequest |           0      0.00%      0.00% |    13851823    100.00%    100.00% |           0      0.00%    100.00%
system.ruby.DMA_Controller.BUSY_WR.WriteRequest::total     13851823                      
system.ruby.DMA_Controller.BUSY_WR.DMA_Ack |           0      0.00%      0.00% |      465512    100.00%    100.00% |           0      0.00%    100.00%
system.ruby.DMA_Controller.BUSY_WR.DMA_Ack::total       465512                      
system.ruby.DMA_Controller.BUSY_WR.Inv_Ack |           0      0.00%      0.00% |        8723    100.00%    100.00% |           0      0.00%    100.00%
system.ruby.DMA_Controller.BUSY_WR.Inv_Ack::total         8723                      
system.ruby.DMA_Controller.BUSY_WR.All_Acks |           0      0.00%      0.00% |      465512    100.00%    100.00% |           0      0.00%    100.00%
system.ruby.DMA_Controller.BUSY_WR.All_Acks::total       465512                      
system.ruby.L1Cache_Controller.Load        1615251428      0.00%      0.00%
system.ruby.L1Cache_Controller.Ifetch    18446744072184717312      0.00%      0.00%
system.ruby.L1Cache_Controller.Store        591342723      0.00%      0.00%
system.ruby.L1Cache_Controller.L1_Replacement     99332070      0.00%      0.00%
system.ruby.L1Cache_Controller.Fwd_GETX           392      0.00%      0.00%
system.ruby.L1Cache_Controller.Fwd_DMA           6343      0.00%      0.00%
system.ruby.L1Cache_Controller.Inv                  5      0.00%      0.00%
system.ruby.L1Cache_Controller.Data          56138222      0.00%      0.00%
system.ruby.L1Cache_Controller.Exclusive_Data     45334868      0.00%      0.00%
system.ruby.L1Cache_Controller.Writeback_Ack     41439930      0.00%      0.00%
system.ruby.L1Cache_Controller.Writeback_Ack_Data     57347577      0.00%      0.00%
system.ruby.L1Cache_Controller.All_acks      28384249      0.00%      0.00%
system.ruby.L1Cache_Controller.Use_Timeout     45334868      0.00%      0.00%
system.ruby.L1Cache_Controller.I.Load        31230868      0.00%      0.00%
system.ruby.L1Cache_Controller.I.Ifetch      41857974      0.00%      0.00%
system.ruby.L1Cache_Controller.I.Store       25700339      0.00%      0.00%
system.ruby.L1Cache_Controller.I.L1_Replacement          337      0.00%      0.00%
system.ruby.L1Cache_Controller.S.Load       360194857      0.00%      0.00%
system.ruby.L1Cache_Controller.S.Ifetch  18446744072142258176      0.00%      0.00%
system.ruby.L1Cache_Controller.S.Store        2683910      0.00%      0.00%
system.ruby.L1Cache_Controller.S.L1_Replacement     53453747      0.00%      0.00%
system.ruby.L1Cache_Controller.S.Inv                5      0.00%      0.00%
system.ruby.L1Cache_Controller.M.Load       153817698      0.00%      0.00%
system.ruby.L1Cache_Controller.M.Ifetch           426      0.00%      0.00%
system.ruby.L1Cache_Controller.M.Store        2468051      0.00%      0.00%
system.ruby.L1Cache_Controller.M.L1_Replacement     12247265      0.00%      0.00%
system.ruby.L1Cache_Controller.M.Fwd_GETX           29      0.00%      0.00%
system.ruby.L1Cache_Controller.M_W.Load      25129585      0.00%      0.00%
system.ruby.L1Cache_Controller.M_W.Ifetch          373      0.00%      0.00%
system.ruby.L1Cache_Controller.M_W.Store      2235219      0.00%      0.00%
system.ruby.L1Cache_Controller.M_W.L1_Replacement       137668      0.00%      0.00%
system.ruby.L1Cache_Controller.M_W.Use_Timeout     14715400      0.00%      0.00%
system.ruby.L1Cache_Controller.MM.Load     1040914285      0.00%      0.00%
system.ruby.L1Cache_Controller.MM.Store     518528908      0.00%      0.00%
system.ruby.L1Cache_Controller.MM.L1_Replacement     33086496      0.00%      0.00%
system.ruby.L1Cache_Controller.MM.Fwd_GETX          363      0.00%      0.00%
system.ruby.L1Cache_Controller.MM.Fwd_DMA         6343      0.00%      0.00%
system.ruby.L1Cache_Controller.MM_W.Load      3384953      0.00%      0.00%
system.ruby.L1Cache_Controller.MM_W.Store     39667762      0.00%      0.00%
system.ruby.L1Cache_Controller.MM_W.L1_Replacement       214455      0.00%      0.00%
system.ruby.L1Cache_Controller.MM_W.Use_Timeout     30619468      0.00%      0.00%
system.ruby.L1Cache_Controller.IM.L1_Replacement        40342      0.00%      0.00%
system.ruby.L1Cache_Controller.IM.Exclusive_Data     25700339      0.00%      0.00%
system.ruby.L1Cache_Controller.SM.L1_Replacement        55081      0.00%      0.00%
system.ruby.L1Cache_Controller.SM.Exclusive_Data      2683910      0.00%      0.00%
system.ruby.L1Cache_Controller.OM.L1_Replacement          761      0.00%      0.00%
system.ruby.L1Cache_Controller.OM.All_acks     28384249      0.00%      0.00%
system.ruby.L1Cache_Controller.IS.L1_Replacement        95918      0.00%      0.00%
system.ruby.L1Cache_Controller.IS.Data       56138222      0.00%      0.00%
system.ruby.L1Cache_Controller.IS.Exclusive_Data     16950619      0.00%      0.00%
system.ruby.L1Cache_Controller.SI.Load         488650      0.00%      0.00%
system.ruby.L1Cache_Controller.SI.Ifetch       600820      0.00%      0.00%
system.ruby.L1Cache_Controller.SI.Store          7251      0.00%      0.00%
system.ruby.L1Cache_Controller.SI.Writeback_Ack     41439930      0.00%      0.00%
system.ruby.L1Cache_Controller.SI.Writeback_Ack_Data     12013816      0.00%      0.00%
system.ruby.L1Cache_Controller.MI.Load          90532      0.00%      0.00%
system.ruby.L1Cache_Controller.MI.Ifetch           80      0.00%      0.00%
system.ruby.L1Cache_Controller.MI.Store         51283      0.00%      0.00%
system.ruby.L1Cache_Controller.MI.Writeback_Ack_Data     45333761      0.00%      0.00%
system.ruby.L2Cache_Controller.L1_GETS       73091835      0.00%      0.00%
system.ruby.L2Cache_Controller.L1_GETX       28388189      0.00%      0.00%
system.ruby.L2Cache_Controller.L1_PUTX       45333761      0.00%      0.00%
system.ruby.L2Cache_Controller.L1_PUTS_only     53453747      0.00%      0.00%
system.ruby.L2Cache_Controller.L1_PUTS             27      0.00%      0.00%
system.ruby.L2Cache_Controller.Fwd_GETX          9292      0.00%      0.00%
system.ruby.L2Cache_Controller.Fwd_DMA           8883      0.00%      0.00%
system.ruby.L2Cache_Controller.Inv               8723      0.00%      0.00%
system.ruby.L2Cache_Controller.IntAck               5      0.00%      0.00%
system.ruby.L2Cache_Controller.All_Acks      10425407      0.00%      0.00%
system.ruby.L2Cache_Controller.Data          24826581      0.00%      0.00%
system.ruby.L2Cache_Controller.Data_Exclusive          392      0.00%      0.00%
system.ruby.L2Cache_Controller.L1_WBCLEANDATA     12013816      0.00%      0.00%
system.ruby.L2Cache_Controller.L1_WBDIRTYDATA     45333761      0.00%      0.00%
system.ruby.L2Cache_Controller.Writeback_Ack     10412145      0.00%      0.00%
system.ruby.L2Cache_Controller.Unblock       97578152      0.00%      0.00%
system.ruby.L2Cache_Controller.Exclusive_Unblock     45334868      0.00%      0.00%
system.ruby.L2Cache_Controller.DmaAck            6343      0.00%      0.00%
system.ruby.L2Cache_Controller.L2_Replacement     22002283      0.00%      0.00%
system.ruby.L2Cache_Controller.NP.L1_GETS     14401033      0.00%      0.00%
system.ruby.L2Cache_Controller.NP.L1_GETX      7552362      0.00%      0.00%
system.ruby.L2Cache_Controller.NP.Inv            7057      0.00%      0.00%
system.ruby.L2Cache_Controller.I.L1_GETS          147      0.00%      0.00%
system.ruby.L2Cache_Controller.ILS.L1_GETX      2455796      0.00%      0.00%
system.ruby.L2Cache_Controller.ILS.L1_PUTS_only     12013817      0.00%      0.00%
system.ruby.L2Cache_Controller.ILS.Inv              5      0.00%      0.00%
system.ruby.L2Cache_Controller.ILX.L1_PUTX     45333761      0.00%      0.00%
system.ruby.L2Cache_Controller.ILX.Fwd_GETX          392      0.00%      0.00%
system.ruby.L2Cache_Controller.ILX.Fwd_DMA         6343      0.00%      0.00%
system.ruby.L2Cache_Controller.S.L1_GETS     41737043      0.00%      0.00%
system.ruby.L2Cache_Controller.S.L1_GETX       189130      0.00%      0.00%
system.ruby.L2Cache_Controller.S.Inv             1661      0.00%      0.00%
system.ruby.L2Cache_Controller.S.L2_Replacement     11521378      0.00%      0.00%
system.ruby.L2Cache_Controller.SLS.L1_GETX       228114      0.00%      0.00%
system.ruby.L2Cache_Controller.SLS.L1_PUTS_only     41439930      0.00%      0.00%
system.ruby.L2Cache_Controller.SLS.L2_Replacement        68715      0.00%      0.00%
system.ruby.L2Cache_Controller.M.L1_GETS     16950619      0.00%      0.00%
system.ruby.L2Cache_Controller.M.L1_GETX     17958847      0.00%      0.00%
system.ruby.L2Cache_Controller.M.Fwd_GETX         8900      0.00%      0.00%
system.ruby.L2Cache_Controller.M.Fwd_DMA         2513      0.00%      0.00%
system.ruby.L2Cache_Controller.M.L2_Replacement     10412145      0.00%      0.00%
system.ruby.L2Cache_Controller.IFGX.Data_Exclusive          392      0.00%      0.00%
system.ruby.L2Cache_Controller.IW.L1_GETS          359      0.00%      0.00%
system.ruby.L2Cache_Controller.IW.L1_GETX            4      0.00%      0.00%
system.ruby.L2Cache_Controller.IW.L1_WBCLEANDATA     12013816      0.00%      0.00%
system.ruby.L2Cache_Controller.SW.L1_GETS         1842      0.00%      0.00%
system.ruby.L2Cache_Controller.SW.L1_GETX           28      0.00%      0.00%
system.ruby.L2Cache_Controller.SW.Unblock     41439930      0.00%      0.00%
system.ruby.L2Cache_Controller.SW.L2_Replacement           45      0.00%      0.00%
system.ruby.L2Cache_Controller.ILXW.L1_GETS           86      0.00%      0.00%
system.ruby.L2Cache_Controller.ILXW.L1_GETX         1841      0.00%      0.00%
system.ruby.L2Cache_Controller.ILXW.Fwd_DMA           27      0.00%      0.00%
system.ruby.L2Cache_Controller.ILXW.L1_WBDIRTYDATA     45333761      0.00%      0.00%
system.ruby.L2Cache_Controller.IGS.L1_GETX           76      0.00%      0.00%
system.ruby.L2Cache_Controller.IGS.Data      14401179      0.00%      0.00%
system.ruby.L2Cache_Controller.IGS.Unblock     14401179      0.00%      0.00%
system.ruby.L2Cache_Controller.IGM.Data       7741492      0.00%      0.00%
system.ruby.L2Cache_Controller.IGMLS.Data      2683910      0.00%      0.00%
system.ruby.L2Cache_Controller.IGMO.All_Acks     10425402      0.00%      0.00%
system.ruby.L2Cache_Controller.IGMO.Exclusive_Unblock     10425402      0.00%      0.00%
system.ruby.L2Cache_Controller.II.IntAck            5      0.00%      0.00%
system.ruby.L2Cache_Controller.II.All_Acks            5      0.00%      0.00%
system.ruby.L2Cache_Controller.MM.Exclusive_Unblock     17958847      0.00%      0.00%
system.ruby.L2Cache_Controller.SS.L1_GETX           24      0.00%      0.00%
system.ruby.L2Cache_Controller.SS.L1_PUTS           27      0.00%      0.00%
system.ruby.L2Cache_Controller.SS.Unblock     41737043      0.00%      0.00%
system.ruby.L2Cache_Controller.OO.Exclusive_Unblock     16950619      0.00%      0.00%
system.ruby.L2Cache_Controller.MI.L1_GETS          706      0.00%      0.00%
system.ruby.L2Cache_Controller.MI.L1_GETX         1967      0.00%      0.00%
system.ruby.L2Cache_Controller.MI.Writeback_Ack     10412145      0.00%      0.00%
system.ruby.L2Cache_Controller.ILXD.DmaAck         6343      0.00%      0.00%

---------- End Simulation Statistics   ----------