
---------- Begin Simulation Statistics ----------
sim_seconds                                108.227099                       # Number of seconds simulated
sim_ticks                                108227099387500                       # Number of ticks simulated
final_tick                               108227099387500                       # Number of ticks from beginning of simulation (restored from checkpoints and never reset)
sim_freq                                 1000000000000                       # Frequency of simulated ticks
host_inst_rate                                 152020                       # Simulator instruction rate (inst/s)
host_op_rate                                   161966                       # Simulator op (including micro ops) rate (op/s)
host_tick_rate                             2354257558                       # Simulator tick rate (ticks/s)
host_mem_usage                                2688844                       # Number of bytes of host memory used
host_seconds                                 45970.80                       # Real time elapsed on the host
sim_insts                                  6988499182                       # Number of instructions simulated
sim_ops                                    7445711607                       # Number of ops (including micro ops) simulated
system.voltage_domain.voltage                       1                       # Voltage in Volts
system.clk_domain.clock                          1000                       # Clock period in ticks
system.bootmem.pwrStateResidencyTicks::UNDEFINED 108227099387500                       # Cumulative time (in ticks) in various power states
system.bootmem.bytes_read::ruby.network.ext_links3.ext_node          576                       # Number of bytes read from this memory
system.bootmem.bytes_read::total                  576                       # Number of bytes read from this memory
system.bootmem.num_reads::ruby.network.ext_links3.ext_node            9                       # Number of read requests responded to by this memory
system.bootmem.num_reads::total                     9                       # Number of read requests responded to by this memory
system.bootmem.bw_read::ruby.network.ext_links3.ext_node            5                       # Total read bandwidth from this memory (bytes/s)
system.bootmem.bw_read::total                       5                       # Total read bandwidth from this memory (bytes/s)
system.bootmem.bw_total::ruby.network.ext_links3.ext_node            5                       # Total bandwidth to/from this memory (bytes/s)
system.bootmem.bw_total::total                      5                       # Total bandwidth to/from this memory (bytes/s)
system.mem_ctrls.pwrStateResidencyTicks::UNDEFINED 108227099387500                       # Cumulative time (in ticks) in various power states
system.mem_ctrls.bytes_read::ruby.dir_cntrl0   2265712704                       # Number of bytes read from this memory
system.mem_ctrls.bytes_read::total         2265712704                       # Number of bytes read from this memory
system.mem_ctrls.bytes_written::ruby.dir_cntrl0   1006697984                       # Number of bytes written to this memory
system.mem_ctrls.bytes_written::total      1006697984                       # Number of bytes written to this memory
system.mem_ctrls.num_reads::ruby.dir_cntrl0     35401761                       # Number of read requests responded to by this memory
system.mem_ctrls.num_reads::total            35401761                       # Number of read requests responded to by this memory
system.mem_ctrls.num_writes::ruby.dir_cntrl0     15729656                       # Number of write requests responded to by this memory
system.mem_ctrls.num_writes::total           15729656                       # Number of write requests responded to by this memory
system.mem_ctrls.bw_read::ruby.dir_cntrl0     20934800                       # Total read bandwidth from this memory (bytes/s)
system.mem_ctrls.bw_read::total              20934800                       # Total read bandwidth from this memory (bytes/s)
system.mem_ctrls.bw_write::ruby.dir_cntrl0      9301718                       # Write bandwidth from this memory (bytes/s)
system.mem_ctrls.bw_write::total              9301718                       # Write bandwidth from this memory (bytes/s)
system.mem_ctrls.bw_total::ruby.dir_cntrl0     30236518                       # Total bandwidth to/from this memory (bytes/s)
system.mem_ctrls.bw_total::total             30236518                       # Total bandwidth to/from this memory (bytes/s)
system.mem_ctrls.readReqs                    35401761                       # Number of read requests accepted
system.mem_ctrls.writeReqs                   15729656                       # Number of write requests accepted
system.mem_ctrls.readBursts                  35401761                       # Number of DRAM read bursts, including those serviced by the write queue
system.mem_ctrls.writeBursts                 15729656                       # Number of DRAM write bursts, including those merged in the write queue
system.mem_ctrls.bytesReadDRAM             2207146752                       # Total number of bytes read from DRAM
system.mem_ctrls.bytesReadWrQ                58565952                       # Total number of bytes read from write queue
system.mem_ctrls.bytesWritten              1006664192                       # Total number of bytes written to DRAM
system.mem_ctrls.bytesReadSys              2265712704                       # Total read bytes from the system interface side
system.mem_ctrls.bytesWrittenSys           1006697984                       # Total written bytes from the system interface side
system.mem_ctrls.servicedByWrQ                 915093                       # Number of DRAM read bursts serviced by the write queue
system.mem_ctrls.mergedWrBursts                   503                       # Number of DRAM write bursts merged with an existing one
system.mem_ctrls.neitherReadNorWriteReqs            0                       # Number of requests that are neither read nor write
system.mem_ctrls.perBankRdBursts::0           2315642                       # Per bank write bursts
system.mem_ctrls.perBankRdBursts::1           2093319                       # Per bank write bursts
system.mem_ctrls.perBankRdBursts::2           2145106                       # Per bank write bursts
system.mem_ctrls.perBankRdBursts::3           2349183                       # Per bank write bursts
system.mem_ctrls.perBankRdBursts::4           1996362                       # Per bank write bursts
system.mem_ctrls.perBankRdBursts::5           2087982                       # Per bank write bursts
system.mem_ctrls.perBankRdBursts::6           2253809                       # Per bank write bursts
system.mem_ctrls.perBankRdBursts::7           2250442                       # Per bank write bursts
system.mem_ctrls.perBankRdBursts::8           1917977                       # Per bank write bursts
system.mem_ctrls.perBankRdBursts::9           2037607                       # Per bank write bursts
system.mem_ctrls.perBankRdBursts::10          2159853                       # Per bank write bursts
system.mem_ctrls.perBankRdBursts::11          2520962                       # Per bank write bursts
system.mem_ctrls.perBankRdBursts::12          2273211                       # Per bank write bursts
system.mem_ctrls.perBankRdBursts::13          1830818                       # Per bank write bursts
system.mem_ctrls.perBankRdBursts::14          2243490                       # Per bank write bursts
system.mem_ctrls.perBankRdBursts::15          2010905                       # Per bank write bursts
system.mem_ctrls.perBankWrBursts::0            990043                       # Per bank write bursts
system.mem_ctrls.perBankWrBursts::1            976573                       # Per bank write bursts
system.mem_ctrls.perBankWrBursts::2           1018466                       # Per bank write bursts
system.mem_ctrls.perBankWrBursts::3           1214836                       # Per bank write bursts
system.mem_ctrls.perBankWrBursts::4            859569                       # Per bank write bursts
system.mem_ctrls.perBankWrBursts::5            852020                       # Per bank write bursts
system.mem_ctrls.perBankWrBursts::6           1030564                       # Per bank write bursts
system.mem_ctrls.perBankWrBursts::7           1268178                       # Per bank write bursts
system.mem_ctrls.perBankWrBursts::8            820189                       # Per bank write bursts
system.mem_ctrls.perBankWrBursts::9            780439                       # Per bank write bursts
system.mem_ctrls.perBankWrBursts::10          1004798                       # Per bank write bursts
system.mem_ctrls.perBankWrBursts::11          1256505                       # Per bank write bursts
system.mem_ctrls.perBankWrBursts::12           870775                       # Per bank write bursts
system.mem_ctrls.perBankWrBursts::13           754291                       # Per bank write bursts
system.mem_ctrls.perBankWrBursts::14           957368                       # Per bank write bursts
system.mem_ctrls.perBankWrBursts::15          1074514                       # Per bank write bursts
system.mem_ctrls.numRdRetry                         0                       # Number of times read queue was full causing retry
system.mem_ctrls.numWrRetry                      1260                       # Number of times write queue was full causing retry
system.mem_ctrls.totGap                  108227098818500                       # Total gap between requests
system.mem_ctrls.readPktSize::0                     0                       # Read request sizes (log2)
system.mem_ctrls.readPktSize::1                     0                       # Read request sizes (log2)
system.mem_ctrls.readPktSize::2                     0                       # Read request sizes (log2)
system.mem_ctrls.readPktSize::3                     0                       # Read request sizes (log2)
system.mem_ctrls.readPktSize::4                     0                       # Read request sizes (log2)
system.mem_ctrls.readPktSize::5                     0                       # Read request sizes (log2)
system.mem_ctrls.readPktSize::6              35401761                       # Read request sizes (log2)
system.mem_ctrls.writePktSize::0                    0                       # Write request sizes (log2)
system.mem_ctrls.writePktSize::1                    0                       # Write request sizes (log2)
system.mem_ctrls.writePktSize::2                    0                       # Write request sizes (log2)
system.mem_ctrls.writePktSize::3                    0                       # Write request sizes (log2)
system.mem_ctrls.writePktSize::4                    0                       # Write request sizes (log2)
system.mem_ctrls.writePktSize::5                    0                       # Write request sizes (log2)
system.mem_ctrls.writePktSize::6             15729656                       # Write request sizes (log2)
system.mem_ctrls.rdQLenPdf::0                19802962                       # What read queue length does an incoming req see
system.mem_ctrls.rdQLenPdf::1                 7018821                       # What read queue length does an incoming req see
system.mem_ctrls.rdQLenPdf::2                 1798437                       # What read queue length does an incoming req see
system.mem_ctrls.rdQLenPdf::3                  879965                       # What read queue length does an incoming req see
system.mem_ctrls.rdQLenPdf::4                  579727                       # What read queue length does an incoming req see
system.mem_ctrls.rdQLenPdf::5                  567646                       # What read queue length does an incoming req see
system.mem_ctrls.rdQLenPdf::6                  681365                       # What read queue length does an incoming req see
system.mem_ctrls.rdQLenPdf::7                  836754                       # What read queue length does an incoming req see
system.mem_ctrls.rdQLenPdf::8                  336509                       # What read queue length does an incoming req see
system.mem_ctrls.rdQLenPdf::9                  330337                       # What read queue length does an incoming req see
system.mem_ctrls.rdQLenPdf::10                 336814                       # What read queue length does an incoming req see
system.mem_ctrls.rdQLenPdf::11                 333504                       # What read queue length does an incoming req see
system.mem_ctrls.rdQLenPdf::12                 320333                       # What read queue length does an incoming req see
system.mem_ctrls.rdQLenPdf::13                 287214                       # What read queue length does an incoming req see
system.mem_ctrls.rdQLenPdf::14                 192464                       # What read queue length does an incoming req see
system.mem_ctrls.rdQLenPdf::15                 183816                       # What read queue length does an incoming req see
system.mem_ctrls.rdQLenPdf::16                      0                       # What read queue length does an incoming req see
system.mem_ctrls.rdQLenPdf::17                      0                       # What read queue length does an incoming req see
system.mem_ctrls.rdQLenPdf::18                      0                       # What read queue length does an incoming req see
system.mem_ctrls.rdQLenPdf::19                      0                       # What read queue length does an incoming req see
system.mem_ctrls.rdQLenPdf::20                      0                       # What read queue length does an incoming req see
system.mem_ctrls.rdQLenPdf::21                      0                       # What read queue length does an incoming req see
system.mem_ctrls.rdQLenPdf::22                      0                       # What read queue length does an incoming req see
system.mem_ctrls.rdQLenPdf::23                      0                       # What read queue length does an incoming req see
system.mem_ctrls.rdQLenPdf::24                      0                       # What read queue length does an incoming req see
system.mem_ctrls.rdQLenPdf::25                      0                       # What read queue length does an incoming req see
system.mem_ctrls.rdQLenPdf::26                      0                       # What read queue length does an incoming req see
system.mem_ctrls.rdQLenPdf::27                      0                       # What read queue length does an incoming req see
system.mem_ctrls.rdQLenPdf::28                      0                       # What read queue length does an incoming req see
system.mem_ctrls.rdQLenPdf::29                      0                       # What read queue length does an incoming req see
system.mem_ctrls.rdQLenPdf::30                      0                       # What read queue length does an incoming req see
system.mem_ctrls.rdQLenPdf::31                      0                       # What read queue length does an incoming req see
system.mem_ctrls.wrQLenPdf::0                       1                       # What write queue length does an incoming req see
system.mem_ctrls.wrQLenPdf::1                       1                       # What write queue length does an incoming req see
system.mem_ctrls.wrQLenPdf::2                       1                       # What write queue length does an incoming req see
system.mem_ctrls.wrQLenPdf::3                       1                       # What write queue length does an incoming req see
system.mem_ctrls.wrQLenPdf::4                       1                       # What write queue length does an incoming req see
system.mem_ctrls.wrQLenPdf::5                       1                       # What write queue length does an incoming req see
system.mem_ctrls.wrQLenPdf::6                       1                       # What write queue length does an incoming req see
system.mem_ctrls.wrQLenPdf::7                       1                       # What write queue length does an incoming req see
system.mem_ctrls.wrQLenPdf::8                       1                       # What write queue length does an incoming req see
system.mem_ctrls.wrQLenPdf::9                       1                       # What write queue length does an incoming req see
system.mem_ctrls.wrQLenPdf::10                      1                       # What write queue length does an incoming req see
system.mem_ctrls.wrQLenPdf::11                      1                       # What write queue length does an incoming req see
system.mem_ctrls.wrQLenPdf::12                      1                       # What write queue length does an incoming req see
system.mem_ctrls.wrQLenPdf::13                      1                       # What write queue length does an incoming req see
system.mem_ctrls.wrQLenPdf::14                      1                       # What write queue length does an incoming req see
system.mem_ctrls.wrQLenPdf::15                 254477                       # What write queue length does an incoming req see
system.mem_ctrls.wrQLenPdf::16                 300451                       # What write queue length does an incoming req see
system.mem_ctrls.wrQLenPdf::17                 552403                       # What write queue length does an incoming req see
system.mem_ctrls.wrQLenPdf::18                 710151                       # What write queue length does an incoming req see
system.mem_ctrls.wrQLenPdf::19                 757074                       # What write queue length does an incoming req see
system.mem_ctrls.wrQLenPdf::20                 775841                       # What write queue length does an incoming req see
system.mem_ctrls.wrQLenPdf::21                 795916                       # What write queue length does an incoming req see
system.mem_ctrls.wrQLenPdf::22                 815307                       # What write queue length does an incoming req see
system.mem_ctrls.wrQLenPdf::23                 829985                       # What write queue length does an incoming req see
system.mem_ctrls.wrQLenPdf::24                 847950                       # What write queue length does an incoming req see
system.mem_ctrls.wrQLenPdf::25                 861039                       # What write queue length does an incoming req see
system.mem_ctrls.wrQLenPdf::26                 872455                       # What write queue length does an incoming req see
system.mem_ctrls.wrQLenPdf::27                 898504                       # What write queue length does an incoming req see
system.mem_ctrls.wrQLenPdf::28                 942411                       # What write queue length does an incoming req see
system.mem_ctrls.wrQLenPdf::29                 911792                       # What write queue length does an incoming req see
system.mem_ctrls.wrQLenPdf::30                 904265                       # What write queue length does an incoming req see
system.mem_ctrls.wrQLenPdf::31                 908153                       # What write queue length does an incoming req see
system.mem_ctrls.wrQLenPdf::32                 921714                       # What write queue length does an incoming req see
system.mem_ctrls.wrQLenPdf::33                 177734                       # What write queue length does an incoming req see
system.mem_ctrls.wrQLenPdf::34                 189292                       # What write queue length does an incoming req see
system.mem_ctrls.wrQLenPdf::35                 159966                       # What write queue length does an incoming req see
system.mem_ctrls.wrQLenPdf::36                 186707                       # What write queue length does an incoming req see
system.mem_ctrls.wrQLenPdf::37                 180945                       # What write queue length does an incoming req see
system.mem_ctrls.wrQLenPdf::38                 134371                       # What write queue length does an incoming req see
system.mem_ctrls.wrQLenPdf::39                 122408                       # What write queue length does an incoming req see
system.mem_ctrls.wrQLenPdf::40                 116700                       # What write queue length does an incoming req see
system.mem_ctrls.wrQLenPdf::41                 114060                       # What write queue length does an incoming req see
system.mem_ctrls.wrQLenPdf::42                 102503                       # What write queue length does an incoming req see
system.mem_ctrls.wrQLenPdf::43                  81302                       # What write queue length does an incoming req see
system.mem_ctrls.wrQLenPdf::44                  59573                       # What write queue length does an incoming req see
system.mem_ctrls.wrQLenPdf::45                  40483                       # What write queue length does an incoming req see
system.mem_ctrls.wrQLenPdf::46                  33833                       # What write queue length does an incoming req see
system.mem_ctrls.wrQLenPdf::47                  27486                       # What write queue length does an incoming req see
system.mem_ctrls.wrQLenPdf::48                  20709                       # What write queue length does an incoming req see
system.mem_ctrls.wrQLenPdf::49                  21541                       # What write queue length does an incoming req see
system.mem_ctrls.wrQLenPdf::50                  20933                       # What write queue length does an incoming req see
system.mem_ctrls.wrQLenPdf::51                  18668                       # What write queue length does an incoming req see
system.mem_ctrls.wrQLenPdf::52                  14778                       # What write queue length does an incoming req see
system.mem_ctrls.wrQLenPdf::53                  12930                       # What write queue length does an incoming req see
system.mem_ctrls.wrQLenPdf::54                   9762                       # What write queue length does an incoming req see
system.mem_ctrls.wrQLenPdf::55                   8254                       # What write queue length does an incoming req see
system.mem_ctrls.wrQLenPdf::56                   4402                       # What write queue length does an incoming req see
system.mem_ctrls.wrQLenPdf::57                   2650                       # What write queue length does an incoming req see
system.mem_ctrls.wrQLenPdf::58                   1634                       # What write queue length does an incoming req see
system.mem_ctrls.wrQLenPdf::59                   1061                       # What write queue length does an incoming req see
system.mem_ctrls.wrQLenPdf::60                    815                       # What write queue length does an incoming req see
system.mem_ctrls.wrQLenPdf::61                    718                       # What write queue length does an incoming req see
system.mem_ctrls.wrQLenPdf::62                    908                       # What write queue length does an incoming req see
system.mem_ctrls.wrQLenPdf::63                   2124                       # What write queue length does an incoming req see
system.mem_ctrls.bytesPerActivate::samples     14287790                       # Bytes accessed per row activation
system.mem_ctrls.bytesPerActivate::mean    224.933900                       # Bytes accessed per row activation
system.mem_ctrls.bytesPerActivate::gmean   139.689583                       # Bytes accessed per row activation
system.mem_ctrls.bytesPerActivate::stdev   268.151473                       # Bytes accessed per row activation
system.mem_ctrls.bytesPerActivate::0-127      6403203     44.82%     44.82% # Bytes accessed per row activation
system.mem_ctrls.bytesPerActivate::128-255      4117498     28.82%     73.63% # Bytes accessed per row activation
system.mem_ctrls.bytesPerActivate::256-383      1301400      9.11%     82.74% # Bytes accessed per row activation
system.mem_ctrls.bytesPerActivate::384-511       614198      4.30%     87.04% # Bytes accessed per row activation
system.mem_ctrls.bytesPerActivate::512-639       369242      2.58%     89.63% # Bytes accessed per row activation
system.mem_ctrls.bytesPerActivate::640-767       237779      1.66%     91.29% # Bytes accessed per row activation
system.mem_ctrls.bytesPerActivate::768-895       166504      1.17%     92.46% # Bytes accessed per row activation
system.mem_ctrls.bytesPerActivate::896-1023       133420      0.93%     93.39% # Bytes accessed per row activation
system.mem_ctrls.bytesPerActivate::1024-1151       944546      6.61%    100.00% # Bytes accessed per row activation
system.mem_ctrls.bytesPerActivate::total     14287790                       # Bytes accessed per row activation
system.mem_ctrls.rdPerTurnAround::samples       927133                       # Reads before turning the bus around for writes
system.mem_ctrls.rdPerTurnAround::mean      37.197053                       # Reads before turning the bus around for writes
system.mem_ctrls.rdPerTurnAround::stdev     37.584552                       # Reads before turning the bus around for writes
system.mem_ctrls.rdPerTurnAround::0-255        925936     99.87%     99.87% # Reads before turning the bus around for writes
system.mem_ctrls.rdPerTurnAround::256-511          826      0.09%     99.96% # Reads before turning the bus around for writes
system.mem_ctrls.rdPerTurnAround::512-767          196      0.02%     99.98% # Reads before turning the bus around for writes
system.mem_ctrls.rdPerTurnAround::768-1023           66      0.01%     99.99% # Reads before turning the bus around for writes
system.mem_ctrls.rdPerTurnAround::1024-1279           40      0.00%     99.99% # Reads before turning the bus around for writes
system.mem_ctrls.rdPerTurnAround::1280-1535           19      0.00%     99.99% # Reads before turning the bus around for writes
system.mem_ctrls.rdPerTurnAround::1536-1791           12      0.00%    100.00% # Reads before turning the bus around for writes
system.mem_ctrls.rdPerTurnAround::1792-2047            8      0.00%    100.00% # Reads before turning the bus around for writes
system.mem_ctrls.rdPerTurnAround::2048-2303           11      0.00%    100.00% # Reads before turning the bus around for writes
system.mem_ctrls.rdPerTurnAround::2304-2559            4      0.00%    100.00% # Reads before turning the bus around for writes
system.mem_ctrls.rdPerTurnAround::2560-2815            5      0.00%    100.00% # Reads before turning the bus around for writes
system.mem_ctrls.rdPerTurnAround::2816-3071            1      0.00%    100.00% # Reads before turning the bus around for writes
system.mem_ctrls.rdPerTurnAround::3072-3327            2      0.00%    100.00% # Reads before turning the bus around for writes
system.mem_ctrls.rdPerTurnAround::3328-3583            3      0.00%    100.00% # Reads before turning the bus around for writes
system.mem_ctrls.rdPerTurnAround::3840-4095            1      0.00%    100.00% # Reads before turning the bus around for writes
system.mem_ctrls.rdPerTurnAround::4096-4351            1      0.00%    100.00% # Reads before turning the bus around for writes
system.mem_ctrls.rdPerTurnAround::4352-4607            1      0.00%    100.00% # Reads before turning the bus around for writes
system.mem_ctrls.rdPerTurnAround::4608-4863            1      0.00%    100.00% # Reads before turning the bus around for writes
system.mem_ctrls.rdPerTurnAround::total        927133                       # Reads before turning the bus around for writes
system.mem_ctrls.wrPerTurnAround::samples       927133                       # Writes before turning the bus around for reads
system.mem_ctrls.wrPerTurnAround::mean      16.965342                       # Writes before turning the bus around for reads
system.mem_ctrls.wrPerTurnAround::gmean     16.857438                       # Writes before turning the bus around for reads
system.mem_ctrls.wrPerTurnAround::stdev      2.363978                       # Writes before turning the bus around for reads
system.mem_ctrls.wrPerTurnAround::16-17        659166     71.10%     71.10% # Writes before turning the bus around for reads
system.mem_ctrls.wrPerTurnAround::18-19        220677     23.80%     94.90% # Writes before turning the bus around for reads
system.mem_ctrls.wrPerTurnAround::20-21         25763      2.78%     97.68% # Writes before turning the bus around for reads
system.mem_ctrls.wrPerTurnAround::22-23          6922      0.75%     98.42% # Writes before turning the bus around for reads
system.mem_ctrls.wrPerTurnAround::24-25          3119      0.34%     98.76% # Writes before turning the bus around for reads
system.mem_ctrls.wrPerTurnAround::26-27          2107      0.23%     98.99% # Writes before turning the bus around for reads
system.mem_ctrls.wrPerTurnAround::28-29          1940      0.21%     99.20% # Writes before turning the bus around for reads
system.mem_ctrls.wrPerTurnAround::30-31          2799      0.30%     99.50% # Writes before turning the bus around for reads
system.mem_ctrls.wrPerTurnAround::32-33          2094      0.23%     99.73% # Writes before turning the bus around for reads
system.mem_ctrls.wrPerTurnAround::34-35           555      0.06%     99.79% # Writes before turning the bus around for reads
system.mem_ctrls.wrPerTurnAround::36-37           957      0.10%     99.89% # Writes before turning the bus around for reads
system.mem_ctrls.wrPerTurnAround::38-39            94      0.01%     99.90% # Writes before turning the bus around for reads
system.mem_ctrls.wrPerTurnAround::40-41            70      0.01%     99.91% # Writes before turning the bus around for reads
system.mem_ctrls.wrPerTurnAround::42-43           282      0.03%     99.94% # Writes before turning the bus around for reads
system.mem_ctrls.wrPerTurnAround::44-45            57      0.01%     99.94% # Writes before turning the bus around for reads
system.mem_ctrls.wrPerTurnAround::46-47            45      0.00%     99.95% # Writes before turning the bus around for reads
system.mem_ctrls.wrPerTurnAround::48-49            51      0.01%     99.95% # Writes before turning the bus around for reads
system.mem_ctrls.wrPerTurnAround::50-51            29      0.00%     99.96% # Writes before turning the bus around for reads
system.mem_ctrls.wrPerTurnAround::52-53            23      0.00%     99.96% # Writes before turning the bus around for reads
system.mem_ctrls.wrPerTurnAround::54-55            22      0.00%     99.96% # Writes before turning the bus around for reads
system.mem_ctrls.wrPerTurnAround::56-57            17      0.00%     99.96% # Writes before turning the bus around for reads
system.mem_ctrls.wrPerTurnAround::58-59            16      0.00%     99.96% # Writes before turning the bus around for reads
system.mem_ctrls.wrPerTurnAround::60-61            15      0.00%     99.97% # Writes before turning the bus around for reads
system.mem_ctrls.wrPerTurnAround::62-63            16      0.00%     99.97% # Writes before turning the bus around for reads
system.mem_ctrls.wrPerTurnAround::64-65            84      0.01%     99.98% # Writes before turning the bus around for reads
system.mem_ctrls.wrPerTurnAround::66-67            47      0.01%     99.98% # Writes before turning the bus around for reads
system.mem_ctrls.wrPerTurnAround::68-69            22      0.00%     99.98% # Writes before turning the bus around for reads
system.mem_ctrls.wrPerTurnAround::70-71            27      0.00%     99.99% # Writes before turning the bus around for reads
system.mem_ctrls.wrPerTurnAround::72-73            18      0.00%     99.99% # Writes before turning the bus around for reads
system.mem_ctrls.wrPerTurnAround::74-75            11      0.00%     99.99% # Writes before turning the bus around for reads
system.mem_ctrls.wrPerTurnAround::76-77            15      0.00%     99.99% # Writes before turning the bus around for reads
system.mem_ctrls.wrPerTurnAround::78-79            16      0.00%     99.99% # Writes before turning the bus around for reads
system.mem_ctrls.wrPerTurnAround::80-81             8      0.00%     99.99% # Writes before turning the bus around for reads
system.mem_ctrls.wrPerTurnAround::82-83            12      0.00%    100.00% # Writes before turning the bus around for reads
system.mem_ctrls.wrPerTurnAround::84-85             3      0.00%    100.00% # Writes before turning the bus around for reads
system.mem_ctrls.wrPerTurnAround::86-87             2      0.00%    100.00% # Writes before turning the bus around for reads
system.mem_ctrls.wrPerTurnAround::88-89             2      0.00%    100.00% # Writes before turning the bus around for reads
system.mem_ctrls.wrPerTurnAround::90-91            10      0.00%    100.00% # Writes before turning the bus around for reads
system.mem_ctrls.wrPerTurnAround::96-97             4      0.00%    100.00% # Writes before turning the bus around for reads
system.mem_ctrls.wrPerTurnAround::98-99             1      0.00%    100.00% # Writes before turning the bus around for reads
system.mem_ctrls.wrPerTurnAround::100-101            1      0.00%    100.00% # Writes before turning the bus around for reads
system.mem_ctrls.wrPerTurnAround::106-107           11      0.00%    100.00% # Writes before turning the bus around for reads
system.mem_ctrls.wrPerTurnAround::110-111            1      0.00%    100.00% # Writes before turning the bus around for reads
system.mem_ctrls.wrPerTurnAround::120-121            2      0.00%    100.00% # Writes before turning the bus around for reads
system.mem_ctrls.wrPerTurnAround::total        927133                       # Writes before turning the bus around for reads
system.mem_ctrls.totQLat                 1061526045837                       # Total ticks spent queuing
system.mem_ctrls.totMemAccLat            1708151070837                       # Total ticks spent from burst creation until serviced by the DRAM
system.mem_ctrls.totBusLat               172433340000                       # Total ticks spent in databus transfers
system.mem_ctrls.avgQLat                     30780.77                       # Average queueing delay per DRAM burst
system.mem_ctrls.avgBusLat                    5000.00                       # Average bus latency per DRAM burst
system.mem_ctrls.avgMemAccLat                49530.77                       # Average memory access latency per DRAM burst
system.mem_ctrls.avgRdBW                        20.39                       # Average DRAM read bandwidth in MiByte/s
system.mem_ctrls.avgWrBW                         9.30                       # Average achieved write bandwidth in MiByte/s
system.mem_ctrls.avgRdBWSys                     20.93                       # Average system read bandwidth in MiByte/s
system.mem_ctrls.avgWrBWSys                      9.30                       # Average system write bandwidth in MiByte/s
system.mem_ctrls.peakBW                      12800.00                       # Theoretical peak bandwidth in MiByte/s
system.mem_ctrls.busUtil                         0.23                       # Data bus utilization in percentage
system.mem_ctrls.busUtilRead                     0.16                       # Data bus utilization in percentage for reads
system.mem_ctrls.busUtilWrite                    0.07                       # Data bus utilization in percentage for writes
system.mem_ctrls.avgRdQLen                       1.07                       # Average read queue length when enqueuing
system.mem_ctrls.avgWrQLen                      25.75                       # Average write queue length when enqueuing
system.mem_ctrls.readRowHits                 25711303                       # Number of row buffer hits during reads
system.mem_ctrls.writeRowHits                10216688                       # Number of row buffer hits during writes
system.mem_ctrls.readRowHitRate                 74.55                       # Row buffer hit rate for reads
system.mem_ctrls.writeRowHitRate                64.95                       # Row buffer hit rate for writes
system.mem_ctrls.avgGap                    2116645.80                       # Average gap between requests
system.mem_ctrls.pageHitRate                    71.55                       # Row buffer hit rate, read and write combined
system.mem_ctrls_0.actEnergy              52680662160                       # Energy for activate commands per rank (pJ)
system.mem_ctrls_0.preEnergy              28000409415                       # Energy for precharge commands per rank (pJ)
system.mem_ctrls_0.readEnergy            124891773300                       # Energy for read commands per rank (pJ)
system.mem_ctrls_0.writeEnergy            42857499780                       # Energy for write commands per rank (pJ)
system.mem_ctrls_0.refreshEnergy         304734209520.000061                       # Energy for refresh commands per rank (pJ)
system.mem_ctrls_0.actBackEnergy         441479210100                       # Energy for active background per rank (pJ)
system.mem_ctrls_0.preBackEnergy          14267052480                       # Energy for precharge background per rank (pJ)
system.mem_ctrls_0.actPowerDownEnergy    951418229730                       # Energy for active power-down per rank (pJ)
system.mem_ctrls_0.prePowerDownEnergy    197048010240                       # Energy for precharge power-down per rank (pJ)
system.mem_ctrls_0.selfRefreshEnergy     25128777363660                       # Energy for self refresh per rank (pJ)
system.mem_ctrls_0.totalEnergy           27286212526755                       # Total energy per rank (pJ)
system.mem_ctrls_0.averagePower            252.119965                       # Core power per rank (mW)
system.mem_ctrls_0.totalIdleTime         107221654423708                       # Total Idle time Per DRAM Rank
system.mem_ctrls_0.memoryStateTime::IDLE  22060619752                       # Time in different power states
system.mem_ctrls_0.memoryStateTime::REF  129123836000                       # Time in different power states
system.mem_ctrls_0.memoryStateTime::SREF 104622070639500                       # Time in different power states
system.mem_ctrls_0.memoryStateTime::PRE_PDN 513145596354                       # Time in different power states
system.mem_ctrls_0.memoryStateTime::ACT  854260474790                       # Time in different power states
system.mem_ctrls_0.memoryStateTime::ACT_PDN 2086438221104                       # Time in different power states
system.mem_ctrls_1.actEnergy              49334265540                       # Energy for activate commands per rank (pJ)
system.mem_ctrls_1.preEnergy              26221753635                       # Energy for precharge commands per rank (pJ)
system.mem_ctrls_1.readEnergy            121343036220                       # Energy for read commands per rank (pJ)
system.mem_ctrls_1.writeEnergy            39248548380                       # Energy for write commands per rank (pJ)
system.mem_ctrls_1.refreshEnergy         311779213200.000061                       # Energy for refresh commands per rank (pJ)
system.mem_ctrls_1.actBackEnergy         444626545470                       # Energy for active background per rank (pJ)
system.mem_ctrls_1.preBackEnergy          11250997920                       # Energy for precharge background per rank (pJ)
system.mem_ctrls_1.actPowerDownEnergy    972067777620                       # Energy for active power-down per rank (pJ)
system.mem_ctrls_1.prePowerDownEnergy    209038744800                       # Energy for precharge power-down per rank (pJ)
system.mem_ctrls_1.selfRefreshEnergy     25111686694620                       # Energy for self refresh per rank (pJ)
system.mem_ctrls_1.totalEnergy           27296652675885                       # Total energy per rank (pJ)
system.mem_ctrls_1.averagePower            252.216430                       # Core power per rank (mW)
system.mem_ctrls_1.totalIdleTime         107222621998639                       # Total Idle time Per DRAM Rank
system.mem_ctrls_1.memoryStateTime::IDLE  14017673505                       # Time in different power states
system.mem_ctrls_1.memoryStateTime::REF  132115482000                       # Time in different power states
system.mem_ctrls_1.memoryStateTime::SREF 104546519655750                       # Time in different power states
system.mem_ctrls_1.memoryStateTime::PRE_PDN 544372180064                       # Time in different power states
system.mem_ctrls_1.memoryStateTime::ACT  858344131106                       # Time in different power states
system.mem_ctrls_1.memoryStateTime::ACT_PDN 2131730265075                       # Time in different power states
system.pwrStateResidencyTicks::UNDEFINED 108227099387500                       # Cumulative time (in ticks) in various power states
system.cf0.dma_read_full_pages                    155                       # Number of full page size DMA reads (not PRD).
system.cf0.dma_read_bytes                      634880                       # Number of bytes transfered via DMA reads (not PRD).
system.cf0.dma_read_txs                           155                       # Number of DMA read transactions (not PRD).
system.cf0.dma_write_full_pages                  7272                       # Number of full page size DMA writes.
system.cf0.dma_write_bytes                   29788672                       # Number of bytes transfered via DMA writes.
system.cf0.dma_write_txs                         7275                       # Number of DMA write transactions.
system.cpu.branchPred.lookups              1364485208                       # Number of BP lookups
system.cpu.branchPred.condPredicted        1098168516                       # Number of conditional branches predicted
system.cpu.branchPred.condIncorrect          77563909                       # Number of conditional branches incorrect
system.cpu.branchPred.BTBLookups            856952267                       # Number of BTB lookups
system.cpu.branchPred.BTBHits               629638091                       # Number of BTB hits
system.cpu.branchPred.BTBCorrect                    0                       # Number of correct BTB predictions (this stat may not work properly.
system.cpu.branchPred.BTBHitPct             73.474115                       # BTB Hit Percentage
system.cpu.branchPred.usedRAS                75576911                       # Number of times the RAS was used to get a target.
system.cpu.branchPred.RASInCorrect             300447                       # Number of incorrect RAS predictions.
system.cpu.branchPred.indirectLookups        21785509                       # Number of indirect predictor lookups.
system.cpu.branchPred.indirectHits           16603143                       # Number of indirect target hits.
system.cpu.branchPred.indirectMisses          5182366                       # Number of indirect misses.
system.cpu.branchPredindirectMispredicted      1922825                       # Number of mispredicted indirect branches.
system.cpu_voltage_domain.voltage                   1                       # Voltage in Volts
system.cpu_clk_domain.clock                       500                       # Clock period in ticks
system.cpu.dstage2_mmu.stage2_tlb.walker.pwrStateResidencyTicks::UNDEFINED 108227099387500                       # Cumulative time (in ticks) in various power states
system.cpu.dstage2_mmu.stage2_tlb.walker.walks            0                       # Table walker walks requested
system.cpu.dstage2_mmu.stage2_tlb.walker.walkRequestOrigin_Requested::Data            0                       # Table walker requests started/completed, data/inst
system.cpu.dstage2_mmu.stage2_tlb.walker.walkRequestOrigin_Requested::Inst            0                       # Table walker requests started/completed, data/inst
system.cpu.dstage2_mmu.stage2_tlb.walker.walkRequestOrigin_Requested::total            0                       # Table walker requests started/completed, data/inst
system.cpu.dstage2_mmu.stage2_tlb.walker.walkRequestOrigin_Completed::Data            0                       # Table walker requests started/completed, data/inst
system.cpu.dstage2_mmu.stage2_tlb.walker.walkRequestOrigin_Completed::Inst            0                       # Table walker requests started/completed, data/inst
system.cpu.dstage2_mmu.stage2_tlb.walker.walkRequestOrigin_Completed::total            0                       # Table walker requests started/completed, data/inst
system.cpu.dstage2_mmu.stage2_tlb.walker.walkRequestOrigin::total            0                       # Table walker requests started/completed, data/inst
system.cpu.dstage2_mmu.stage2_tlb.inst_hits            0                       # ITB inst hits
system.cpu.dstage2_mmu.stage2_tlb.inst_misses            0                       # ITB inst misses
system.cpu.dstage2_mmu.stage2_tlb.read_hits            0                       # DTB read hits
system.cpu.dstage2_mmu.stage2_tlb.read_misses            0                       # DTB read misses
system.cpu.dstage2_mmu.stage2_tlb.write_hits            0                       # DTB write hits
system.cpu.dstage2_mmu.stage2_tlb.write_misses            0                       # DTB write misses
system.cpu.dstage2_mmu.stage2_tlb.flush_tlb            0                       # Number of times complete TLB was flushed
system.cpu.dstage2_mmu.stage2_tlb.flush_tlb_mva            0                       # Number of times TLB was flushed by MVA
system.cpu.dstage2_mmu.stage2_tlb.flush_tlb_mva_asid            0                       # Number of times TLB was flushed by MVA & ASID
system.cpu.dstage2_mmu.stage2_tlb.flush_tlb_asid            0                       # Number of times TLB was flushed by ASID
system.cpu.dstage2_mmu.stage2_tlb.flush_entries            0                       # Number of entries that have been flushed from TLB
system.cpu.dstage2_mmu.stage2_tlb.align_faults            0                       # Number of TLB faults due to alignment restrictions
system.cpu.dstage2_mmu.stage2_tlb.prefetch_faults            0                       # Number of TLB faults due to prefetch
system.cpu.dstage2_mmu.stage2_tlb.domain_faults            0                       # Number of TLB faults due to domain restrictions
system.cpu.dstage2_mmu.stage2_tlb.perms_faults            0                       # Number of TLB faults due to permissions restrictions
system.cpu.dstage2_mmu.stage2_tlb.read_accesses            0                       # DTB read accesses
system.cpu.dstage2_mmu.stage2_tlb.write_accesses            0                       # DTB write accesses
system.cpu.dstage2_mmu.stage2_tlb.inst_accesses            0                       # ITB inst accesses
system.cpu.dstage2_mmu.stage2_tlb.hits              0                       # DTB hits
system.cpu.dstage2_mmu.stage2_tlb.misses            0                       # DTB misses
system.cpu.dstage2_mmu.stage2_tlb.accesses            0                       # DTB accesses
system.cpu.dtb.walker.pwrStateResidencyTicks::UNDEFINED 108227099387500                       # Cumulative time (in ticks) in various power states
system.cpu.dtb.walker.walks                   9868730                       # Table walker walks requested
system.cpu.dtb.walker.walksLong               9868730                       # Table walker walks initiated with long descriptors
system.cpu.dtb.walker.walksLongTerminationLevel::Level2        49429                       # Level at which table walker walks with long descriptors terminate
system.cpu.dtb.walker.walksLongTerminationLevel::Level3      1379893                       # Level at which table walker walks with long descriptors terminate
system.cpu.dtb.walker.walksSquashedBefore      1365834                       # Table walks squashed before starting
system.cpu.dtb.walker.walkWaitTime::samples      8502896                       # Table walker wait (enqueue to first request) latency
system.cpu.dtb.walker.walkWaitTime::mean   535.515429                       # Table walker wait (enqueue to first request) latency
system.cpu.dtb.walker.walkWaitTime::stdev  7464.501355                       # Table walker wait (enqueue to first request) latency
system.cpu.dtb.walker.walkWaitTime::0-65535      8478368     99.71%     99.71% # Table walker wait (enqueue to first request) latency
system.cpu.dtb.walker.walkWaitTime::65536-131071        18772      0.22%     99.93% # Table walker wait (enqueue to first request) latency
system.cpu.dtb.walker.walkWaitTime::131072-196607         3694      0.04%     99.98% # Table walker wait (enqueue to first request) latency
system.cpu.dtb.walker.walkWaitTime::196608-262143         1157      0.01%     99.99% # Table walker wait (enqueue to first request) latency
system.cpu.dtb.walker.walkWaitTime::262144-327679          380      0.00%     99.99% # Table walker wait (enqueue to first request) latency
system.cpu.dtb.walker.walkWaitTime::327680-393215          224      0.00%    100.00% # Table walker wait (enqueue to first request) latency
system.cpu.dtb.walker.walkWaitTime::393216-458751           99      0.00%    100.00% # Table walker wait (enqueue to first request) latency
system.cpu.dtb.walker.walkWaitTime::458752-524287           39      0.00%    100.00% # Table walker wait (enqueue to first request) latency
system.cpu.dtb.walker.walkWaitTime::524288-589823           51      0.00%    100.00% # Table walker wait (enqueue to first request) latency
system.cpu.dtb.walker.walkWaitTime::589824-655359           99      0.00%    100.00% # Table walker wait (enqueue to first request) latency
system.cpu.dtb.walker.walkWaitTime::655360-720895           12      0.00%    100.00% # Table walker wait (enqueue to first request) latency
system.cpu.dtb.walker.walkWaitTime::720896-786431            1      0.00%    100.00% # Table walker wait (enqueue to first request) latency
system.cpu.dtb.walker.walkWaitTime::total      8502896                       # Table walker wait (enqueue to first request) latency
system.cpu.dtb.walker.walkCompletionTime::samples      2617321                       # Table walker service (enqueue to completion) latency
system.cpu.dtb.walker.walkCompletionTime::mean 21000.210835                       # Table walker service (enqueue to completion) latency
system.cpu.dtb.walker.walkCompletionTime::gmean  8267.788552                       # Table walker service (enqueue to completion) latency
system.cpu.dtb.walker.walkCompletionTime::stdev 47450.523705                       # Table walker service (enqueue to completion) latency
system.cpu.dtb.walker.walkCompletionTime::0-131071      2564216     97.97%     97.97% # Table walker service (enqueue to completion) latency
system.cpu.dtb.walker.walkCompletionTime::131072-262143        37458      1.43%     99.40% # Table walker service (enqueue to completion) latency
system.cpu.dtb.walker.walkCompletionTime::262144-393215         7056      0.27%     99.67% # Table walker service (enqueue to completion) latency
system.cpu.dtb.walker.walkCompletionTime::393216-524287         1255      0.05%     99.72% # Table walker service (enqueue to completion) latency
system.cpu.dtb.walker.walkCompletionTime::524288-655359         7159      0.27%     99.99% # Table walker service (enqueue to completion) latency
system.cpu.dtb.walker.walkCompletionTime::655360-786431          160      0.01%    100.00% # Table walker service (enqueue to completion) latency
system.cpu.dtb.walker.walkCompletionTime::786432-917503           12      0.00%    100.00% # Table walker service (enqueue to completion) latency
system.cpu.dtb.walker.walkCompletionTime::917504-1.04858e+06            4      0.00%    100.00% # Table walker service (enqueue to completion) latency
system.cpu.dtb.walker.walkCompletionTime::1.17965e+06-1.31072e+06            1      0.00%    100.00% # Table walker service (enqueue to completion) latency
system.cpu.dtb.walker.walkCompletionTime::total      2617321                       # Table walker service (enqueue to completion) latency
system.cpu.dtb.walker.walksPending::samples 5349728763912                       # Table walker pending requests distribution
system.cpu.dtb.walker.walksPending::mean     0.783385                       # Table walker pending requests distribution
system.cpu.dtb.walker.walksPending::stdev     0.448914                       # Table walker pending requests distribution
system.cpu.dtb.walker.walksPending::0-1  5342875970912     99.87%     99.87% # Table walker pending requests distribution
system.cpu.dtb.walker.walksPending::2-3    3739912000      0.07%     99.94% # Table walker pending requests distribution
system.cpu.dtb.walker.walksPending::4-5    1427864000      0.03%     99.97% # Table walker pending requests distribution
system.cpu.dtb.walker.walksPending::6-7     532402000      0.01%     99.98% # Table walker pending requests distribution
system.cpu.dtb.walker.walksPending::8-9     794086000      0.01%     99.99% # Table walker pending requests distribution
system.cpu.dtb.walker.walksPending::10-11     88530500      0.00%     99.99% # Table walker pending requests distribution
system.cpu.dtb.walker.walksPending::12-13     60265000      0.00%    100.00% # Table walker pending requests distribution
system.cpu.dtb.walker.walksPending::14-15    206144000      0.00%    100.00% # Table walker pending requests distribution
system.cpu.dtb.walker.walksPending::16-17      3263000      0.00%    100.00% # Table walker pending requests distribution
system.cpu.dtb.walker.walksPending::18-19       318000      0.00%    100.00% # Table walker pending requests distribution
system.cpu.dtb.walker.walksPending::20-21         8500      0.00%    100.00% # Table walker pending requests distribution
system.cpu.dtb.walker.walksPending::total 5349728763912                       # Table walker pending requests distribution
system.cpu.dtb.walker.walkPageSizes::4K       1379893     96.54%     96.54% # Table walker page sizes translated
system.cpu.dtb.walker.walkPageSizes::2M         49429      3.46%    100.00% # Table walker page sizes translated
system.cpu.dtb.walker.walkPageSizes::total      1429322                       # Table walker page sizes translated
system.cpu.dtb.walker.walkRequestOrigin_Requested::Data      9868730                       # Table walker requests started/completed, data/inst
system.cpu.dtb.walker.walkRequestOrigin_Requested::Inst            0                       # Table walker requests started/completed, data/inst
system.cpu.dtb.walker.walkRequestOrigin_Requested::total      9868730                       # Table walker requests started/completed, data/inst
system.cpu.dtb.walker.walkRequestOrigin_Completed::Data      1429322                       # Table walker requests started/completed, data/inst
system.cpu.dtb.walker.walkRequestOrigin_Completed::Inst            0                       # Table walker requests started/completed, data/inst
system.cpu.dtb.walker.walkRequestOrigin_Completed::total      1429322                       # Table walker requests started/completed, data/inst
system.cpu.dtb.walker.walkRequestOrigin::total     11298052                       # Table walker requests started/completed, data/inst
system.cpu.dtb.inst_hits                            0                       # ITB inst hits
system.cpu.dtb.inst_misses                          0                       # ITB inst misses
system.cpu.dtb.read_hits                   1758869487                       # DTB read hits
system.cpu.dtb.read_misses                    8905548                       # DTB read misses
system.cpu.dtb.write_hits                   584763277                       # DTB write hits
system.cpu.dtb.write_misses                    963182                       # DTB write misses
system.cpu.dtb.flush_tlb                           13                       # Number of times complete TLB was flushed
system.cpu.dtb.flush_tlb_mva                        6                       # Number of times TLB was flushed by MVA
system.cpu.dtb.flush_tlb_mva_asid              115294                       # Number of times TLB was flushed by MVA & ASID
system.cpu.dtb.flush_tlb_asid                     708                       # Number of times TLB was flushed by ASID
system.cpu.dtb.flush_entries                    92304                       # Number of entries that have been flushed from TLB
system.cpu.dtb.align_faults                      1183                       # Number of TLB faults due to alignment restrictions
system.cpu.dtb.prefetch_faults                  29767                       # Number of TLB faults due to prefetch
system.cpu.dtb.domain_faults                        0                       # Number of TLB faults due to domain restrictions
system.cpu.dtb.perms_faults                    187517                       # Number of TLB faults due to permissions restrictions
system.cpu.dtb.read_accesses               1767775035                       # DTB read accesses
system.cpu.dtb.write_accesses               585726459                       # DTB write accesses
system.cpu.dtb.inst_accesses                        0                       # ITB inst accesses
system.cpu.dtb.hits                        2343632764                       # DTB hits
system.cpu.dtb.misses                         9868730                       # DTB misses
system.cpu.dtb.accesses                    2353501494                       # DTB accesses
system.cpu.istage2_mmu.stage2_tlb.walker.pwrStateResidencyTicks::UNDEFINED 108227099387500                       # Cumulative time (in ticks) in various power states
system.cpu.istage2_mmu.stage2_tlb.walker.walks            0                       # Table walker walks requested
system.cpu.istage2_mmu.stage2_tlb.walker.walkRequestOrigin_Requested::Data            0                       # Table walker requests started/completed, data/inst
system.cpu.istage2_mmu.stage2_tlb.walker.walkRequestOrigin_Requested::Inst            0                       # Table walker requests started/completed, data/inst
system.cpu.istage2_mmu.stage2_tlb.walker.walkRequestOrigin_Requested::total            0                       # Table walker requests started/completed, data/inst
system.cpu.istage2_mmu.stage2_tlb.walker.walkRequestOrigin_Completed::Data            0                       # Table walker requests started/completed, data/inst
system.cpu.istage2_mmu.stage2_tlb.walker.walkRequestOrigin_Completed::Inst            0                       # Table walker requests started/completed, data/inst
system.cpu.istage2_mmu.stage2_tlb.walker.walkRequestOrigin_Completed::total            0                       # Table walker requests started/completed, data/inst
system.cpu.istage2_mmu.stage2_tlb.walker.walkRequestOrigin::total            0                       # Table walker requests started/completed, data/inst
system.cpu.istage2_mmu.stage2_tlb.inst_hits            0                       # ITB inst hits
system.cpu.istage2_mmu.stage2_tlb.inst_misses            0                       # ITB inst misses
system.cpu.istage2_mmu.stage2_tlb.read_hits            0                       # DTB read hits
system.cpu.istage2_mmu.stage2_tlb.read_misses            0                       # DTB read misses
system.cpu.istage2_mmu.stage2_tlb.write_hits            0                       # DTB write hits
system.cpu.istage2_mmu.stage2_tlb.write_misses            0                       # DTB write misses
system.cpu.istage2_mmu.stage2_tlb.flush_tlb            0                       # Number of times complete TLB was flushed
system.cpu.istage2_mmu.stage2_tlb.flush_tlb_mva            0                       # Number of times TLB was flushed by MVA
system.cpu.istage2_mmu.stage2_tlb.flush_tlb_mva_asid            0                       # Number of times TLB was flushed by MVA & ASID
system.cpu.istage2_mmu.stage2_tlb.flush_tlb_asid            0                       # Number of times TLB was flushed by ASID
system.cpu.istage2_mmu.stage2_tlb.flush_entries            0                       # Number of entries that have been flushed from TLB
system.cpu.istage2_mmu.stage2_tlb.align_faults            0                       # Number of TLB faults due to alignment restrictions
system.cpu.istage2_mmu.stage2_tlb.prefetch_faults            0                       # Number of TLB faults due to prefetch
system.cpu.istage2_mmu.stage2_tlb.domain_faults            0                       # Number of TLB faults due to domain restrictions
system.cpu.istage2_mmu.stage2_tlb.perms_faults            0                       # Number of TLB faults due to permissions restrictions
system.cpu.istage2_mmu.stage2_tlb.read_accesses            0                       # DTB read accesses
system.cpu.istage2_mmu.stage2_tlb.write_accesses            0                       # DTB write accesses
system.cpu.istage2_mmu.stage2_tlb.inst_accesses            0                       # ITB inst accesses
system.cpu.istage2_mmu.stage2_tlb.hits              0                       # DTB hits
system.cpu.istage2_mmu.stage2_tlb.misses            0                       # DTB misses
system.cpu.istage2_mmu.stage2_tlb.accesses            0                       # DTB accesses
system.cpu.itb.walker.pwrStateResidencyTicks::UNDEFINED 108227099387500                       # Cumulative time (in ticks) in various power states
system.cpu.itb.walker.walks                    426854                       # Table walker walks requested
system.cpu.itb.walker.walksLong                426854                       # Table walker walks initiated with long descriptors
system.cpu.itb.walker.walksLongTerminationLevel::Level2         6147                       # Level at which table walker walks with long descriptors terminate
system.cpu.itb.walker.walksLongTerminationLevel::Level3       289304                       # Level at which table walker walks with long descriptors terminate
system.cpu.itb.walker.walksSquashedBefore        27566                       # Table walks squashed before starting
system.cpu.itb.walker.walkWaitTime::samples       399288                       # Table walker wait (enqueue to first request) latency
system.cpu.itb.walker.walkWaitTime::mean   643.973773                       # Table walker wait (enqueue to first request) latency
system.cpu.itb.walker.walkWaitTime::stdev  7559.604343                       # Table walker wait (enqueue to first request) latency
system.cpu.itb.walker.walkWaitTime::0-65535       397921     99.66%     99.66% # Table walker wait (enqueue to first request) latency
system.cpu.itb.walker.walkWaitTime::65536-131071         1122      0.28%     99.94% # Table walker wait (enqueue to first request) latency
system.cpu.itb.walker.walkWaitTime::131072-196607          140      0.04%     99.97% # Table walker wait (enqueue to first request) latency
system.cpu.itb.walker.walkWaitTime::196608-262143           58      0.01%     99.99% # Table walker wait (enqueue to first request) latency
system.cpu.itb.walker.walkWaitTime::262144-327679           39      0.01%    100.00% # Table walker wait (enqueue to first request) latency
system.cpu.itb.walker.walkWaitTime::327680-393215            5      0.00%    100.00% # Table walker wait (enqueue to first request) latency
system.cpu.itb.walker.walkWaitTime::393216-458751            2      0.00%    100.00% # Table walker wait (enqueue to first request) latency
system.cpu.itb.walker.walkWaitTime::524288-589823            1      0.00%    100.00% # Table walker wait (enqueue to first request) latency
system.cpu.itb.walker.walkWaitTime::total       399288                       # Table walker wait (enqueue to first request) latency
system.cpu.itb.walker.walkCompletionTime::samples       323017                       # Table walker service (enqueue to completion) latency
system.cpu.itb.walker.walkCompletionTime::mean 18737.533786                       # Table walker service (enqueue to completion) latency
system.cpu.itb.walker.walkCompletionTime::gmean  7539.190941                       # Table walker service (enqueue to completion) latency
system.cpu.itb.walker.walkCompletionTime::stdev 37730.413669                       # Table walker service (enqueue to completion) latency
system.cpu.itb.walker.walkCompletionTime::0-65535       286795     88.79%     88.79% # Table walker service (enqueue to completion) latency
system.cpu.itb.walker.walkCompletionTime::65536-131071        31072      9.62%     98.41% # Table walker service (enqueue to completion) latency
system.cpu.itb.walker.walkCompletionTime::131072-196607         3032      0.94%     99.34% # Table walker service (enqueue to completion) latency
system.cpu.itb.walker.walkCompletionTime::196608-262143         1062      0.33%     99.67% # Table walker service (enqueue to completion) latency
system.cpu.itb.walker.walkCompletionTime::262144-327679          574      0.18%     99.85% # Table walker service (enqueue to completion) latency
system.cpu.itb.walker.walkCompletionTime::327680-393215          281      0.09%     99.94% # Table walker service (enqueue to completion) latency
system.cpu.itb.walker.walkCompletionTime::393216-458751           67      0.02%     99.96% # Table walker service (enqueue to completion) latency
system.cpu.itb.walker.walkCompletionTime::458752-524287           36      0.01%     99.97% # Table walker service (enqueue to completion) latency
system.cpu.itb.walker.walkCompletionTime::524288-589823            7      0.00%     99.97% # Table walker service (enqueue to completion) latency
system.cpu.itb.walker.walkCompletionTime::589824-655359           88      0.03%    100.00% # Table walker service (enqueue to completion) latency
system.cpu.itb.walker.walkCompletionTime::655360-720895            3      0.00%    100.00% # Table walker service (enqueue to completion) latency
system.cpu.itb.walker.walkCompletionTime::total       323017                       # Table walker service (enqueue to completion) latency
system.cpu.itb.walker.walksPending::samples 1729089128384                       # Table walker pending requests distribution
system.cpu.itb.walker.walksPending::mean     0.952480                       # Table walker pending requests distribution
system.cpu.itb.walker.walksPending::stdev     0.213119                       # Table walker pending requests distribution
system.cpu.itb.walker.walksPending::0     82301854332      4.76%      4.76% # Table walker pending requests distribution
system.cpu.itb.walker.walksPending::1    1646652030552     95.23%     99.99% # Table walker pending requests distribution
system.cpu.itb.walker.walksPending::2       134524000      0.01%    100.00% # Table walker pending requests distribution
system.cpu.itb.walker.walksPending::3          692500      0.00%    100.00% # Table walker pending requests distribution
system.cpu.itb.walker.walksPending::4           11000      0.00%    100.00% # Table walker pending requests distribution
system.cpu.itb.walker.walksPending::5            9500      0.00%    100.00% # Table walker pending requests distribution
system.cpu.itb.walker.walksPending::6            6500      0.00%    100.00% # Table walker pending requests distribution
system.cpu.itb.walker.walksPending::total 1729089128384                       # Table walker pending requests distribution
system.cpu.itb.walker.walkPageSizes::4K        289304     97.92%     97.92% # Table walker page sizes translated
system.cpu.itb.walker.walkPageSizes::2M          6147      2.08%    100.00% # Table walker page sizes translated
system.cpu.itb.walker.walkPageSizes::total       295451                       # Table walker page sizes translated
system.cpu.itb.walker.walkRequestOrigin_Requested::Data            0                       # Table walker requests started/completed, data/inst
system.cpu.itb.walker.walkRequestOrigin_Requested::Inst       426854                       # Table walker requests started/completed, data/inst
system.cpu.itb.walker.walkRequestOrigin_Requested::total       426854                       # Table walker requests started/completed, data/inst
system.cpu.itb.walker.walkRequestOrigin_Completed::Data            0                       # Table walker requests started/completed, data/inst
system.cpu.itb.walker.walkRequestOrigin_Completed::Inst       295451                       # Table walker requests started/completed, data/inst
system.cpu.itb.walker.walkRequestOrigin_Completed::total       295451                       # Table walker requests started/completed, data/inst
system.cpu.itb.walker.walkRequestOrigin::total       722305                       # Table walker requests started/completed, data/inst
system.cpu.itb.inst_hits                   2742932601                       # ITB inst hits
system.cpu.itb.inst_misses                     426854                       # ITB inst misses
system.cpu.itb.read_hits                            0                       # DTB read hits
system.cpu.itb.read_misses                          0                       # DTB read misses
system.cpu.itb.write_hits                           0                       # DTB write hits
system.cpu.itb.write_misses                         0                       # DTB write misses
system.cpu.itb.flush_tlb                           13                       # Number of times complete TLB was flushed
system.cpu.itb.flush_tlb_mva                        6                       # Number of times TLB was flushed by MVA
system.cpu.itb.flush_tlb_mva_asid              115294                       # Number of times TLB was flushed by MVA & ASID
system.cpu.itb.flush_tlb_asid                     708                       # Number of times TLB was flushed by ASID
system.cpu.itb.flush_entries                    41339                       # Number of entries that have been flushed from TLB
system.cpu.itb.align_faults                         0                       # Number of TLB faults due to alignment restrictions
system.cpu.itb.prefetch_faults                      0                       # Number of TLB faults due to prefetch
system.cpu.itb.domain_faults                        0                       # Number of TLB faults due to domain restrictions
system.cpu.itb.perms_faults                    685259                       # Number of TLB faults due to permissions restrictions
system.cpu.itb.read_accesses                        0                       # DTB read accesses
system.cpu.itb.write_accesses                       0                       # DTB write accesses
system.cpu.itb.inst_accesses               2743359455                       # ITB inst accesses
system.cpu.itb.hits                        2742932601                       # DTB hits
system.cpu.itb.misses                          426854                       # DTB misses
system.cpu.itb.accesses                    2743359455                       # DTB accesses
system.cpu.numPwrStateTransitions               41464                       # Number of power state transitions
system.cpu.pwrStateClkGateDist::samples         20732                       # Distribution of time spent in the clock gated state
system.cpu.pwrStateClkGateDist::mean     4958754171.545389                       # Distribution of time spent in the clock gated state
system.cpu.pwrStateClkGateDist::stdev    65888520486.534576                       # Distribution of time spent in the clock gated state
system.cpu.pwrStateClkGateDist::underflows        20442     98.60%     98.60% # Distribution of time spent in the clock gated state
system.cpu.pwrStateClkGateDist::1000-5e+10          149      0.72%     99.32% # Distribution of time spent in the clock gated state
system.cpu.pwrStateClkGateDist::5e+10-1e+11            3      0.01%     99.33% # Distribution of time spent in the clock gated state
system.cpu.pwrStateClkGateDist::1e+11-1.5e+11            2      0.01%     99.34% # Distribution of time spent in the clock gated state
system.cpu.pwrStateClkGateDist::1.5e+11-2e+11           13      0.06%     99.41% # Distribution of time spent in the clock gated state
system.cpu.pwrStateClkGateDist::2e+11-2.5e+11           11      0.05%     99.46% # Distribution of time spent in the clock gated state
system.cpu.pwrStateClkGateDist::2.5e+11-3e+11            2      0.01%     99.47% # Distribution of time spent in the clock gated state
system.cpu.pwrStateClkGateDist::3e+11-3.5e+11            3      0.01%     99.48% # Distribution of time spent in the clock gated state
system.cpu.pwrStateClkGateDist::4e+11-4.5e+11            1      0.00%     99.49% # Distribution of time spent in the clock gated state
system.cpu.pwrStateClkGateDist::4.5e+11-5e+11            6      0.03%     99.52% # Distribution of time spent in the clock gated state
system.cpu.pwrStateClkGateDist::5e+11-5.5e+11            8      0.04%     99.56% # Distribution of time spent in the clock gated state
system.cpu.pwrStateClkGateDist::6.5e+11-7e+11            1      0.00%     99.56% # Distribution of time spent in the clock gated state
system.cpu.pwrStateClkGateDist::7.5e+11-8e+11            8      0.04%     99.60% # Distribution of time spent in the clock gated state
system.cpu.pwrStateClkGateDist::8e+11-8.5e+11            9      0.04%     99.64% # Distribution of time spent in the clock gated state
system.cpu.pwrStateClkGateDist::9.5e+11-1e+12           74      0.36%    100.00% # Distribution of time spent in the clock gated state
system.cpu.pwrStateClkGateDist::min_value          501                       # Distribution of time spent in the clock gated state
system.cpu.pwrStateClkGateDist::max_value 999973478368                       # Distribution of time spent in the clock gated state
system.cpu.pwrStateClkGateDist::total           20732                       # Distribution of time spent in the clock gated state
system.cpu.pwrStateResidencyTicks::ON    5422207903021                       # Cumulative time (in ticks) in various power states
system.cpu.pwrStateResidencyTicks::CLK_GATED 102804891484479                       # Cumulative time (in ticks) in various power states
system.cpu.numCycles                      10844417092                       # number of cpu cycles simulated
system.cpu.numWorkItemsStarted                      0                       # number of work items this cpu started
system.cpu.numWorkItemsCompleted                    0                       # number of work items this cpu completed
system.cpu.fetch.icacheStallCycles         3385618535                       # Number of cycles fetch is stalled on an Icache miss
system.cpu.fetch.Insts                     8333953457                       # Number of instructions fetch has processed
system.cpu.fetch.Branches                  1364485208                       # Number of branches that fetch encountered
system.cpu.fetch.predictedBranches          721818145                       # Number of branches that fetch has predicted taken
system.cpu.fetch.Cycles                    6640664103                       # Number of cycles fetch has run and was not squashing or blocked
system.cpu.fetch.SquashCycles               157590400                       # Number of cycles fetch has spent squashing
system.cpu.fetch.TlbCycles                    6189480                       # Number of cycles fetch has spent waiting for tlb
system.cpu.fetch.MiscStallCycles             17119688                       # Number of cycles fetch has spent waiting on interrupts, or bad addresses, or out of MSHRs
system.cpu.fetch.PendingTrapStallCycles      15877734                       # Number of stall cycles due to pending traps
system.cpu.fetch.PendingQuiesceStallCycles      3530463                       # Number of stall cycles due to pending quiesce instructions
system.cpu.fetch.IcacheWaitRetryStallCycles     30648028                       # Number of stall cycles due to full MSHR
system.cpu.fetch.CacheLines                2742185255                       # Number of cache lines fetched
system.cpu.fetch.IcacheSquashes              37124328                       # Number of outstanding Icache misses that were squashed
system.cpu.fetch.ItlbSquashes                   76071                       # Number of outstanding ITLB misses that were squashed
system.cpu.fetch.rateDist::samples        10178443231                       # Number of instructions fetched each cycle (Total)
system.cpu.fetch.rateDist::mean              0.870549                       # Number of instructions fetched each cycle (Total)
system.cpu.fetch.rateDist::stdev             1.179061                       # Number of instructions fetched each cycle (Total)
system.cpu.fetch.rateDist::underflows               0      0.00%      0.00% # Number of instructions fetched each cycle (Total)
system.cpu.fetch.rateDist::0               5835780541     57.33%     57.33% # Number of instructions fetched each cycle (Total)
system.cpu.fetch.rateDist::1               1807758509     17.76%     75.10% # Number of instructions fetched each cycle (Total)
system.cpu.fetch.rateDist::2                551639925      5.42%     80.52% # Number of instructions fetched each cycle (Total)
system.cpu.fetch.rateDist::3               1983264256     19.48%    100.00% # Number of instructions fetched each cycle (Total)
system.cpu.fetch.rateDist::overflows                0      0.00%    100.00% # Number of instructions fetched each cycle (Total)
system.cpu.fetch.rateDist::min_value                0                       # Number of instructions fetched each cycle (Total)
system.cpu.fetch.rateDist::max_value                3                       # Number of instructions fetched each cycle (Total)
system.cpu.fetch.rateDist::total          10178443231                       # Number of instructions fetched each cycle (Total)
system.cpu.fetch.branchRate                  0.125824                       # Number of branch fetches per cycle
system.cpu.fetch.rate                        0.768502                       # Number of inst fetches per cycle
system.cpu.decode.IdleCycles               2664066006                       # Number of cycles decode is idle
system.cpu.decode.BlockedCycles            3768913658                       # Number of cycles decode is blocked
system.cpu.decode.RunCycles                3243206021                       # Number of cycles decode is running
system.cpu.decode.UnblockCycles             433052749                       # Number of cycles decode is unblocking
system.cpu.decode.SquashCycles               69204797                       # Number of cycles decode is squashing
system.cpu.decode.BranchResolved            590208930                       # Number of times decode resolved a branch
system.cpu.decode.BranchMispred               9721957                       # Number of times decode detected a branch misprediction
system.cpu.decode.DecodedInsts             8249385911                       # Number of instructions handled by decode
system.cpu.decode.SquashedInsts             183856482                       # Number of squashed instructions handled by decode
system.cpu.rename.SquashCycles               69204797                       # Number of cycles rename is squashing
[...]
system.ruby.Directory_Controller.DMA_ACK |        5749    100.00%    100.00% |           0      0.00%    100.00%
system.ruby.Directory_Controller.DMA_ACK::total         5749                      
system.ruby.Directory_Controller.Data    |        2135    100.00%    100.00% |           0      0.00%    100.00%
system.ruby.Directory_Controller.Data::total         2135                      
system.ruby.Directory_Controller.I.GETX  |     9367961    100.00%    100.00% |           0      0.00%    100.00%
system.ruby.Directory_Controller.I.GETX::total      9367961                      
system.ruby.Directory_Controller.I.GETS  |     6849637    100.00%    100.00% |           9      0.00%    100.00%
system.ruby.Directory_Controller.I.GETS::total      6849646                      
system.ruby.Directory_Controller.I.Memory_Ack |    15301196    100.00%    100.00% |           0      0.00%    100.00%
system.ruby.Directory_Controller.I.Memory_Ack::total     15301196                      
system.ruby.Directory_Controller.I.DMA_READ |       10853    100.00%    100.00% |           0      0.00%    100.00%
system.ruby.Directory_Controller.I.DMA_READ::total        10853                      
system.ruby.Directory_Controller.I.DMA_WRITE |      453412    100.00%    100.00% |           0      0.00%    100.00%
system.ruby.Directory_Controller.I.DMA_WRITE::total       453412                      
system.ruby.Directory_Controller.S.GETX  |     5927139    100.00%    100.00% |           0      0.00%    100.00%
system.ruby.Directory_Controller.S.GETX::total      5927139                      
system.ruby.Directory_Controller.S.GETS  |    13329311    100.00%    100.00% |           0      0.00%    100.00%
system.ruby.Directory_Controller.S.GETS::total     13329311                      
system.ruby.Directory_Controller.S.DMA_READ |      127270    100.00%    100.00% |           0      0.00%    100.00%
system.ruby.Directory_Controller.S.DMA_READ::total       127270                      
system.ruby.Directory_Controller.S.DMA_WRITE |        9965    100.00%    100.00% |           0      0.00%    100.00%
system.ruby.Directory_Controller.S.DMA_WRITE::total         9965                      
system.ruby.Directory_Controller.M.PUTX  |    15290698    100.00%    100.00% |           0      0.00%    100.00%
system.ruby.Directory_Controller.M.PUTX::total     15290698                      
system.ruby.Directory_Controller.M.DMA_READ |        5749    100.00%    100.00% |           0      0.00%    100.00%
system.ruby.Directory_Controller.M.DMA_READ::total         5749                      
system.ruby.Directory_Controller.M.DMA_WRITE |        2135    100.00%    100.00% |           0      0.00%    100.00%
system.ruby.Directory_Controller.M.DMA_WRITE::total         2135                      
system.ruby.Directory_Controller.IS.GETX |          30    100.00%    100.00% |           0      0.00%    100.00%
system.ruby.Directory_Controller.IS.GETX::total           30                      
system.ruby.Directory_Controller.IS.Unblock |     6849637    100.00%    100.00% |           9      0.00%    100.00%
system.ruby.Directory_Controller.IS.Unblock::total      6849646                      
system.ruby.Directory_Controller.IS.Memory_Data |     6849637    100.00%    100.00% |           9      0.00%    100.00%
system.ruby.Directory_Controller.IS.Memory_Data::total      6849646                      
system.ruby.Directory_Controller.IS.Memory_Ack |        1586    100.00%    100.00% |           0      0.00%    100.00%
system.ruby.Directory_Controller.IS.Memory_Ack::total         1586                      
system.ruby.Directory_Controller.SS.Last_Unblock |    13329310    100.00%    100.00% |           0      0.00%    100.00%
system.ruby.Directory_Controller.SS.Last_Unblock::total     13329310                      
system.ruby.Directory_Controller.SS.Memory_Data |    13329311    100.00%    100.00% |           0      0.00%    100.00%
system.ruby.Directory_Controller.SS.Memory_Data::total     13329311                      
system.ruby.Directory_Controller.MM.Exclusive_Unblock |    15295100    100.00%    100.00% |           0      0.00%    100.00%
system.ruby.Directory_Controller.MM.Exclusive_Unblock::total     15295100                      
system.ruby.Directory_Controller.MM.Memory_Data |    15295100    100.00%    100.00% |           0      0.00%    100.00%
system.ruby.Directory_Controller.MM.Memory_Data::total     15295100                      
system.ruby.Directory_Controller.MM.Memory_Ack |        2589    100.00%    100.00% |           0      0.00%    100.00%
system.ruby.Directory_Controller.MM.Memory_Ack::total         2589                      
system.ruby.Directory_Controller.MI.GETX |           2    100.00%    100.00% |           0      0.00%    100.00%
system.ruby.Directory_Controller.MI.GETX::total            2                      
system.ruby.Directory_Controller.MI.Dirty_Writeback |    15290698    100.00%    100.00% |           0      0.00%    100.00%
system.ruby.Directory_Controller.MI.Dirty_Writeback::total     15290698                      
system.ruby.Directory_Controller.XI_M.Memory_Data |       10853    100.00%    100.00% |           0      0.00%    100.00%
system.ruby.Directory_Controller.XI_M.Memory_Data::total        10853                      
system.ruby.Directory_Controller.XI_U.Exclusive_Unblock |      465512    100.00%    100.00% |           0      0.00%    100.00%
system.ruby.Directory_Controller.XI_U.Exclusive_Unblock::total       465512                      
system.ruby.Directory_Controller.XI_U.Memory_Ack |      450839    100.00%    100.00% |           0      0.00%    100.00%
system.ruby.Directory_Controller.XI_U.Memory_Ack::total       450839                      
system.ruby.Directory_Controller.OI_D.Data |        2135    100.00%    100.00% |           0      0.00%    100.00%
system.ruby.Directory_Controller.OI_D.Data::total         2135                      
system.ruby.Directory_Controller.MD.DMA_ACK |        5749    100.00%    100.00% |           0      0.00%    100.00%
system.ruby.Directory_Controller.MD.DMA_ACK::total         5749                      
system.ruby.DMA_Controller.ReadRequest   |           0      0.00%      0.00% |     4266286    100.00%    100.00% |           0      0.00%    100.00%
system.ruby.DMA_Controller.ReadRequest::total      4266286                      
system.ruby.DMA_Controller.WriteRequest  |           0      0.00%      0.00% |    14312834    100.00%    100.00% |           0      0.00%    100.00%
system.ruby.DMA_Controller.WriteRequest::total     14312834                      
system.ruby.DMA_Controller.Data          |           0      0.00%      0.00% |      143872    100.00%    100.00% |           0      0.00%    100.00%
system.ruby.DMA_Controller.Data::total         143872                      
system.ruby.DMA_Controller.DMA_Ack       |           0      0.00%      0.00% |      465512    100.00%    100.00% |           0      0.00%    100.00%
system.ruby.DMA_Controller.DMA_Ack::total       465512                      
system.ruby.DMA_Controller.Inv_Ack       |           0      0.00%      0.00% |        9965    100.00%    100.00% |           0      0.00%    100.00%
system.ruby.DMA_Controller.Inv_Ack::total         9965                      
system.ruby.DMA_Controller.All_Acks      |           0      0.00%      0.00% |      465512    100.00%    100.00% |           0      0.00%    100.00%
system.ruby.DMA_Controller.All_Acks::total       465512                      
system.ruby.DMA_Controller.READY.ReadRequest |           0      0.00%      0.00% |      143872    100.00%    100.00% |           0      0.00%    100.00%
system.ruby.DMA_Controller.READY.ReadRequest::total       143872                      
system.ruby.DMA_Controller.READY.WriteRequest |           0      0.00%      0.00% |      465512    100.00%    100.00% |           0      0.00%    100.00%
system.ruby.DMA_Controller.READY.WriteRequest::total       465512                      
system.ruby.DMA_Controller.BUSY_RD.ReadRequest |           0      0.00%      0.00% |     4122414    100.00%    100.00% |           0      0.00%    100.00%
system.ruby.DMA_Controller.BUSY_RD.ReadRequest::total      4122414                      
system.ruby.DMA_Controller.BUSY_RD.Data  |           0      0.00%      0.00% |      143872    100.00%    100.00% |           0      0.00%    100.00%
system.ruby.DMA_Controller.BUSY_RD.Data::total       143872                      
system.ruby.DMA_Controller.BUSY_WR.WriteRequest |           0      0.00%      0.00% |    13847322    100.00%    100.00% |           0      0.00%    100.00%
system.ruby.DMA_Controller.BUSY_WR.WriteRequest::total     13847322                      
system.ruby.DMA_Controller.BUSY_WR.DMA_Ack |           0      0.00%      0.00% |      465512    100.00%    100.00% |           0      0.00%    100.00%
system.ruby.DMA_Controller.BUSY_WR.DMA_Ack::total       465512                      
system.ruby.DMA_Controller.BUSY_WR.Inv_Ack |           0      0.00%      0.00% |        9965    100.00%    100.00% |           0      0.00%    100.00%
system.ruby.DMA_Controller.BUSY_WR.Inv_Ack::total         9965                      
system.ruby.DMA_Controller.BUSY_WR.All_Acks |           0      0.00%      0.00% |      465512    100.00%    100.00% |           0      0.00%    100.00%
system.ruby.DMA_Controller.BUSY_WR.All_Acks::total       465512                      
system.ruby.L1Cache_Controller.Load        1602256146      0.00%      0.00%
system.ruby.L1Cache_Controller.Ifetch    18446744072163647488      0.00%      0.00%
system.ruby.L1Cache_Controller.Store        579733710      0.00%      0.00%
system.ruby.L1Cache_Controller.L1_Replacement     97294693      0.00%      0.00%
system.ruby.L1Cache_Controller.Fwd_GETX           353      0.00%      0.00%
system.ruby.L1Cache_Controller.Fwd_DMA           2937      0.00%      0.00%
system.ruby.L1Cache_Controller.Inv                 23      0.00%      0.00%
system.ruby.L1Cache_Controller.Data          56497110      0.00%      0.00%
system.ruby.L1Cache_Controller.Exclusive_Data     44161627      0.00%      0.00%
system.ruby.L1Cache_Controller.Writeback_Ack     35834077      0.00%      0.00%
system.ruby.L1Cache_Controller.Writeback_Ack_Data     60828227      0.00%      0.00%
system.ruby.L1Cache_Controller.All_acks      29729385      0.00%      0.00%
system.ruby.L1Cache_Controller.Use_Timeout     44161627      0.00%      0.00%
system.ruby.L1Cache_Controller.I.Load        31337655      0.00%      0.00%
system.ruby.L1Cache_Controller.I.Ifetch      39591698      0.00%      0.00%
system.ruby.L1Cache_Controller.I.Store       25734603      0.00%      0.00%
system.ruby.L1Cache_Controller.I.L1_Replacement          348      0.00%      0.00%
system.ruby.L1Cache_Controller.S.Load       374689075      0.00%      0.00%
system.ruby.L1Cache_Controller.S.Ifetch  18446744072117338112      0.00%      0.00%
system.ruby.L1Cache_Controller.S.Store        3994782      0.00%      0.00%
system.ruby.L1Cache_Controller.S.L1_Replacement     52501771      0.00%      0.00%
system.ruby.L1Cache_Controller.S.Inv               23      0.00%      0.00%
system.ruby.L1Cache_Controller.M.Load       141248337      0.00%      0.00%
system.ruby.L1Cache_Controller.M.Ifetch       6069987      0.00%      0.00%
system.ruby.L1Cache_Controller.M.Store        1667845      0.00%      0.00%
system.ruby.L1Cache_Controller.M.L1_Replacement     10995954      0.00%      0.00%
system.ruby.L1Cache_Controller.M.Fwd_GETX           19      0.00%      0.00%
system.ruby.L1Cache_Controller.M_W.Load      22469639      0.00%      0.00%
system.ruby.L1Cache_Controller.M_W.Ifetch        54014      0.00%      0.00%
system.ruby.L1Cache_Controller.M_W.Store      1768387      0.00%      0.00%
system.ruby.L1Cache_Controller.M_W.L1_Replacement       121059      0.00%      0.00%
system.ruby.L1Cache_Controller.M_W.Use_Timeout     12663855      0.00%      0.00%
system.ruby.L1Cache_Controller.MM.Load     1028119684      0.00%      0.00%
system.ruby.L1Cache_Controller.MM.Store     504336290      0.00%      0.00%
system.ruby.L1Cache_Controller.MM.L1_Replacement     33164580      0.00%      0.00%
system.ruby.L1Cache_Controller.MM.Fwd_GETX          334      0.00%      0.00%
system.ruby.L1Cache_Controller.MM.Fwd_DMA         2937      0.00%      0.00%
system.ruby.L1Cache_Controller.MM_W.Load      3788729      0.00%      0.00%
system.ruby.L1Cache_Controller.MM_W.Store     42176400      0.00%      0.00%
system.ruby.L1Cache_Controller.MM_W.L1_Replacement       212949      0.00%      0.00%
system.ruby.L1Cache_Controller.MM_W.Use_Timeout     31497772      0.00%      0.00%
system.ruby.L1Cache_Controller.IM.L1_Replacement        64486      0.00%      0.00%
system.ruby.L1Cache_Controller.IM.Exclusive_Data     25734603      0.00%      0.00%
system.ruby.L1Cache_Controller.SM.L1_Replacement        80381      0.00%      0.00%
system.ruby.L1Cache_Controller.SM.Exclusive_Data      3994782      0.00%      0.00%
system.ruby.L1Cache_Controller.OM.L1_Replacement         1438      0.00%      0.00%
system.ruby.L1Cache_Controller.OM.All_acks     29729385      0.00%      0.00%
system.ruby.L1Cache_Controller.IS.L1_Replacement       151727      0.00%      0.00%
system.ruby.L1Cache_Controller.IS.Data       56497110      0.00%      0.00%
system.ruby.L1Cache_Controller.IS.Exclusive_Data     14432242      0.00%      0.00%
system.ruby.L1Cache_Controller.SI.Load         516077      0.00%      0.00%
system.ruby.L1Cache_Controller.SI.Ifetch       593961      0.00%      0.00%
system.ruby.L1Cache_Controller.SI.Store         12402      0.00%      0.00%
system.ruby.L1Cache_Controller.SI.Writeback_Ack     35834077      0.00%      0.00%
system.ruby.L1Cache_Controller.SI.Writeback_Ack_Data     16667693      0.00%      0.00%
system.ruby.L1Cache_Controller.MI.Load          86950      0.00%      0.00%
system.ruby.L1Cache_Controller.MI.Ifetch           76      0.00%      0.00%
system.ruby.L1Cache_Controller.MI.Store         43001      0.00%      0.00%
system.ruby.L1Cache_Controller.MI.Writeback_Ack_Data     44160534      0.00%      0.00%
system.ruby.L2Cache_Controller.L1_GETS       70931645      0.00%      0.00%
system.ruby.L2Cache_Controller.L1_GETX       29743675      0.00%      0.00%
system.ruby.L2Cache_Controller.L1_PUTX       44160534      0.00%      0.00%
system.ruby.L2Cache_Controller.L1_PUTS_only     52501771      0.00%      0.00%
system.ruby.L2Cache_Controller.L1_PUTS             22      0.00%      0.00%
system.ruby.L2Cache_Controller.Fwd_GETX          2135      0.00%      0.00%
system.ruby.L2Cache_Controller.Fwd_DMA           6087      0.00%      0.00%
system.ruby.L2Cache_Controller.Inv               9965      0.00%      0.00%
system.ruby.L2Cache_Controller.IntAck              23      0.00%      0.00%
system.ruby.L2Cache_Controller.All_Acks      15295123      0.00%      0.00%
system.ruby.L2Cache_Controller.Data          35474057      0.00%      0.00%
system.ruby.L2Cache_Controller.Data_Exclusive          353      0.00%      0.00%
system.ruby.L2Cache_Controller.L1_WBCLEANDATA     16667693      0.00%      0.00%
system.ruby.L2Cache_Controller.L1_WBDIRTYDATA     44160534      0.00%      0.00%
system.ruby.L2Cache_Controller.Writeback_Ack     15290698      0.00%      0.00%
system.ruby.L2Cache_Controller.Unblock       92331187      0.00%      0.00%
system.ruby.L2Cache_Controller.Exclusive_Unblock     44161627      0.00%      0.00%
system.ruby.L2Cache_Controller.DmaAck            2937      0.00%      0.00%
system.ruby.L2Cache_Controller.L2_Replacement     31649723      0.00%      0.00%
system.ruby.L2Cache_Controller.NP.L1_GETS     20178868      0.00%      0.00%
system.ruby.L2Cache_Controller.NP.L1_GETX     11209755      0.00%      0.00%
system.ruby.L2Cache_Controller.NP.Inv            9721      0.00%      0.00%
system.ruby.L2Cache_Controller.I.L1_GETS           90      0.00%      0.00%
system.ruby.L2Cache_Controller.ILS.L1_GETX      3779235      0.00%      0.00%
system.ruby.L2Cache_Controller.ILS.L1_PUTS_only     16667694      0.00%      0.00%
system.ruby.L2Cache_Controller.ILS.Inv             23      0.00%      0.00%
system.ruby.L2Cache_Controller.ILX.L1_PUTX     44160534      0.00%      0.00%
system.ruby.L2Cache_Controller.ILX.Fwd_GETX          353      0.00%      0.00%
system.ruby.L2Cache_Controller.ILX.Fwd_DMA         2937      0.00%      0.00%
system.ruby.L2Cache_Controller.S.L1_GETS     36318153      0.00%      0.00%
system.ruby.L2Cache_Controller.S.L1_GETX        90563      0.00%      0.00%
system.ruby.L2Cache_Controller.S.Inv              221      0.00%      0.00%
system.ruby.L2Cache_Controller.S.L2_Replacement     16090528      0.00%      0.00%
system.ruby.L2Cache_Controller.SLS.L1_GETX       215547      0.00%      0.00%
system.ruby.L2Cache_Controller.SLS.L1_PUTS_only     35834077      0.00%      0.00%
system.ruby.L2Cache_Controller.SLS.L2_Replacement       268267      0.00%      0.00%
system.ruby.L2Cache_Controller.M.L1_GETS     14432242      0.00%      0.00%
system.ruby.L2Cache_Controller.M.L1_GETX     14434285      0.00%      0.00%
system.ruby.L2Cache_Controller.M.Fwd_GETX         1782      0.00%      0.00%
system.ruby.L2Cache_Controller.M.Fwd_DMA         2812      0.00%      0.00%
system.ruby.L2Cache_Controller.M.L2_Replacement     15290698      0.00%      0.00%
system.ruby.L2Cache_Controller.IFGX.Data_Exclusive          353      0.00%      0.00%
system.ruby.L2Cache_Controller.IW.L1_GETS           53      0.00%      0.00%
system.ruby.L2Cache_Controller.IW.L1_GETX            3      0.00%      0.00%
system.ruby.L2Cache_Controller.IW.L1_WBCLEANDATA     16667693      0.00%      0.00%
system.ruby.L2Cache_Controller.SW.L1_GETS         1091      0.00%      0.00%
system.ruby.L2Cache_Controller.SW.L1_GETX           17      0.00%      0.00%
system.ruby.L2Cache_Controller.SW.Unblock     35834077      0.00%      0.00%
system.ruby.L2Cache_Controller.SW.L2_Replacement          230      0.00%      0.00%
system.ruby.L2Cache_Controller.ILXW.L1_GETS           73      0.00%      0.00%
system.ruby.L2Cache_Controller.ILXW.L1_GETX         7415      0.00%      0.00%
system.ruby.L2Cache_Controller.ILXW.Fwd_DMA          338      0.00%      0.00%
system.ruby.L2Cache_Controller.ILXW.L1_WBDIRTYDATA     44160534      0.00%      0.00%
system.ruby.L2Cache_Controller.IGS.L1_GETX          127      0.00%      0.00%
system.ruby.L2Cache_Controller.IGS.Data      20178957      0.00%      0.00%
system.ruby.L2Cache_Controller.IGS.Unblock     20178957      0.00%      0.00%
system.ruby.L2Cache_Controller.IGM.Data      11300318      0.00%      0.00%
system.ruby.L2Cache_Controller.IGMLS.Data      3994782      0.00%      0.00%
system.ruby.L2Cache_Controller.IGMO.All_Acks     15295100      0.00%      0.00%
system.ruby.L2Cache_Controller.IGMO.Exclusive_Unblock     15295100      0.00%      0.00%
system.ruby.L2Cache_Controller.II.IntAck           23      0.00%      0.00%
system.ruby.L2Cache_Controller.II.All_Acks           23      0.00%      0.00%
system.ruby.L2Cache_Controller.MM.Exclusive_Unblock     14434285      0.00%      0.00%
system.ruby.L2Cache_Controller.SS.L1_GETX           27      0.00%      0.00%
system.ruby.L2Cache_Controller.SS.L1_PUTS           22      0.00%      0.00%
system.ruby.L2Cache_Controller.SS.Unblock     36318153      0.00%      0.00%
system.ruby.L2Cache_Controller.OO.Exclusive_Unblock     14432242      0.00%      0.00%
system.ruby.L2Cache_Controller.MI.L1_GETS         1075      0.00%      0.00%
system.ruby.L2Cache_Controller.MI.L1_GETX         6701      0.00%      0.00%
system.ruby.L2Cache_Controller.MI.Writeback_Ack     15290698      0.00%      0.00%
system.ruby.L2Cache_Controller.ILXD.DmaAck         2937      0.00%      0.00%

---------- End Simulation Statistics   ----------