
---------- Begin Simulation Statistics ----------
sim_seconds                               4555.888591                       # Number of seconds simulated
sim_ticks                                4555888591350000                       # Number of ticks simulated
final_tick                               4555888591350000                       # Number of ticks from beginning of simulation (restored from checkpoints and never reset)
sim_freq                                 1000000000000                       # Frequency of simulated ticks
host_inst_rate                                 154768                       # Simulator instruction rate (inst/s)
host_op_rate                                   165283                       # Simulator op (including micro ops) rate (op/s)
host_tick_rate                            99015341506                       # Simulator tick rate (ticks/s)
host_mem_usage                                2716496                       # Number of bytes of host memory used
host_seconds                                 46011.95                       # Real time elapsed on the host
sim_insts                                  7121174416                       # Number of instructions simulated
sim_ops                                    7605015011                       # Number of ops (including micro ops) simulated
system.voltage_domain.voltage                       1                       # Voltage in Volts
system.clk_domain.clock                          1000                       # Clock period in ticks
system.bootmem.pwrStateResidencyTicks::UNDEFINED 4555888591350000                       # Cumulative time (in ticks) in various power states
system.bootmem.bytes_read::ruby.network.ext_links3.ext_node          576                       # Number of bytes read from this memory
system.bootmem.bytes_read::total                  576                       # Number of bytes read from this memory
system.bootmem.num_reads::ruby.network.ext_links3.ext_node            9                       # Number of read requests responded to by this memory
system.bootmem.num_reads::total                     9                       # Number of read requests responded to by this memory
system.bootmem.bw_read::ruby.network.ext_links3.ext_node            0                       # Total read bandwidth from this memory (bytes/s)
system.bootmem.bw_read::total                       0                       # Total read bandwidth from this memory (bytes/s)
system.bootmem.bw_total::ruby.network.ext_links3.ext_node            0                       # Total bandwidth to/from this memory (bytes/s)
system.bootmem.bw_total::total                      0                       # Total bandwidth to/from this memory (bytes/s)
system.mem_ctrls.pwrStateResidencyTicks::UNDEFINED 4555888591350000                       # Cumulative time (in ticks) in various power states
system.mem_ctrls.bytes_read::ruby.dir_cntrl0    972049856                       # Number of bytes read from this memory
system.mem_ctrls.bytes_read::total          972049856                       # Number of bytes read from this memory
system.mem_ctrls.bytes_written::ruby.dir_cntrl0    493376448                       # Number of bytes written to this memory
system.mem_ctrls.bytes_written::total       493376448                       # Number of bytes written to this memory
system.mem_ctrls.num_reads::ruby.dir_cntrl0     15188279                       # Number of read requests responded to by this memory
system.mem_ctrls.num_reads::total            15188279                       # Number of read requests responded to by this memory
system.mem_ctrls.num_writes::ruby.dir_cntrl0      7709007                       # Number of write requests responded to by this memory
system.mem_ctrls.num_writes::total            7709007                       # Number of write requests responded to by this memory
system.mem_ctrls.bw_read::ruby.dir_cntrl0       213361                       # Total read bandwidth from this memory (bytes/s)
system.mem_ctrls.bw_read::total                213361                       # Total read bandwidth from this memory (bytes/s)
system.mem_ctrls.bw_write::ruby.dir_cntrl0       108294                       # Write bandwidth from this memory (bytes/s)
system.mem_ctrls.bw_write::total               108294                       # Write bandwidth from this memory (bytes/s)
system.mem_ctrls.bw_total::ruby.dir_cntrl0       321655                       # Total bandwidth to/from this memory (bytes/s)
system.mem_ctrls.bw_total::total               321655                       # Total bandwidth to/from this memory (bytes/s)
system.mem_ctrls.readReqs                    15188279                       # Number of read requests accepted
system.mem_ctrls.writeReqs                    7709007                       # Number of write requests accepted
system.mem_ctrls.readBursts                  15188279                       # Number of DRAM read bursts, including those serviced by the write queue
system.mem_ctrls.writeBursts                  7709007                       # Number of DRAM write bursts, including those merged in the write queue
system.mem_ctrls.bytesReadDRAM              969156544                       # Total number of bytes read from DRAM
system.mem_ctrls.bytesReadWrQ                 2893312                       # Total number of bytes read from write queue
system.mem_ctrls.bytesWritten               493374144                       # Total number of bytes written to DRAM
system.mem_ctrls.bytesReadSys               972049856                       # Total read bytes from the system interface side
system.mem_ctrls.bytesWrittenSys            493376448                       # Total written bytes from the system interface side
system.mem_ctrls.servicedByWrQ                  45208                       # Number of DRAM read bursts serviced by the write queue
system.mem_ctrls.mergedWrBursts                     9                       # Number of DRAM write bursts merged with an existing one
system.mem_ctrls.neitherReadNorWriteReqs            0                       # Number of requests that are neither read nor write
system.mem_ctrls.perBankRdBursts::0            965878                       # Per bank write bursts
system.mem_ctrls.perBankRdBursts::1           1022225                       # Per bank write bursts
system.mem_ctrls.perBankRdBursts::2            928775                       # Per bank write bursts
system.mem_ctrls.perBankRdBursts::3            963970                       # Per bank write bursts
system.mem_ctrls.perBankRdBursts::4            753696                       # Per bank write bursts
system.mem_ctrls.perBankRdBursts::5            893564                       # Per bank write bursts
system.mem_ctrls.perBankRdBursts::6            811026                       # Per bank write bursts
system.mem_ctrls.perBankRdBursts::7            794344                       # Per bank write bursts
system.mem_ctrls.perBankRdBursts::8            819520                       # Per bank write bursts
system.mem_ctrls.perBankRdBursts::9           1113112                       # Per bank write bursts
system.mem_ctrls.perBankRdBursts::10           905863                       # Per bank write bursts
system.mem_ctrls.perBankRdBursts::11          1020014                       # Per bank write bursts
system.mem_ctrls.perBankRdBursts::12          1133207                       # Per bank write bursts
system.mem_ctrls.perBankRdBursts::13          1000885                       # Per bank write bursts
system.mem_ctrls.perBankRdBursts::14          1079813                       # Per bank write bursts
system.mem_ctrls.perBankRdBursts::15           937179                       # Per bank write bursts
system.mem_ctrls.perBankWrBursts::0            489705                       # Per bank write bursts
system.mem_ctrls.perBankWrBursts::1            523679                       # Per bank write bursts
system.mem_ctrls.perBankWrBursts::2            425494                       # Per bank write bursts
system.mem_ctrls.perBankWrBursts::3            475667                       # Per bank write bursts
system.mem_ctrls.perBankWrBursts::4            402667                       # Per bank write bursts
system.mem_ctrls.perBankWrBursts::5            441952                       # Per bank write bursts
system.mem_ctrls.perBankWrBursts::6            405783                       # Per bank write bursts
system.mem_ctrls.perBankWrBursts::7            452252                       # Per bank write bursts
system.mem_ctrls.perBankWrBursts::8            452953                       # Per bank write bursts
system.mem_ctrls.perBankWrBursts::9            557009                       # Per bank write bursts
system.mem_ctrls.perBankWrBursts::10           483211                       # Per bank write bursts
system.mem_ctrls.perBankWrBursts::11           542479                       # Per bank write bursts
system.mem_ctrls.perBankWrBursts::12           539422                       # Per bank write bursts
system.mem_ctrls.perBankWrBursts::13           523104                       # Per bank write bursts
system.mem_ctrls.perBankWrBursts::14           485853                       # Per bank write bursts
system.mem_ctrls.perBankWrBursts::15           507741                       # Per bank write bursts
system.mem_ctrls.numRdRetry                         0                       # Number of times read queue was full causing retry
system.mem_ctrls.numWrRetry                      5096                       # Number of times write queue was full causing retry
system.mem_ctrls.totGap                  4555888590781000                       # Total gap between requests
system.mem_ctrls.readPktSize::0                     0                       # Read request sizes (log2)
system.mem_ctrls.readPktSize::1                     0                       # Read request sizes (log2)
system.mem_ctrls.readPktSize::2                     0                       # Read request sizes (log2)
system.mem_ctrls.readPktSize::3                     0                       # Read request sizes (log2)
system.mem_ctrls.readPktSize::4                     0                       # Read request sizes (log2)
system.mem_ctrls.readPktSize::5                     0                       # Read request sizes (log2)
system.mem_ctrls.readPktSize::6              15188279                       # Read request sizes (log2)
system.mem_ctrls.writePktSize::0                    0                       # Write request sizes (log2)
system.mem_ctrls.writePktSize::1                    0                       # Write request sizes (log2)
system.mem_ctrls.writePktSize::2                    0                       # Write request sizes (log2)
system.mem_ctrls.writePktSize::3                    0                       # Write request sizes (log2)
system.mem_ctrls.writePktSize::4                    0                       # Write request sizes (log2)
system.mem_ctrls.writePktSize::5                    0                       # Write request sizes (log2)
system.mem_ctrls.writePktSize::6              7709007                       # Write request sizes (log2)
system.mem_ctrls.rdQLenPdf::0                 8589623                       # What read queue length does an incoming req see
system.mem_ctrls.rdQLenPdf::1                 2344545                       # What read queue length does an incoming req see
system.mem_ctrls.rdQLenPdf::2                  511440                       # What read queue length does an incoming req see
system.mem_ctrls.rdQLenPdf::3                  297614                       # What read queue length does an incoming req see
system.mem_ctrls.rdQLenPdf::4                  241447                       # What read queue length does an incoming req see
system.mem_ctrls.rdQLenPdf::5                  347824                       # What read queue length does an incoming req see
system.mem_ctrls.rdQLenPdf::6                  486011                       # What read queue length does an incoming req see
system.mem_ctrls.rdQLenPdf::7                  614509                       # What read queue length does an incoming req see
system.mem_ctrls.rdQLenPdf::8                  247219                       # What read queue length does an incoming req see
system.mem_ctrls.rdQLenPdf::9                  243966                       # What read queue length does an incoming req see
system.mem_ctrls.rdQLenPdf::10                 246857                       # What read queue length does an incoming req see
system.mem_ctrls.rdQLenPdf::11                 245090                       # What read queue length does an incoming req see
system.mem_ctrls.rdQLenPdf::12                 232853                       # What read queue length does an incoming req see
system.mem_ctrls.rdQLenPdf::13                 212818                       # What read queue length does an incoming req see
system.mem_ctrls.rdQLenPdf::14                 144432                       # What read queue length does an incoming req see
system.mem_ctrls.rdQLenPdf::15                 136822                       # What read queue length does an incoming req see
system.mem_ctrls.rdQLenPdf::16                      1                       # What read queue length does an incoming req see
system.mem_ctrls.rdQLenPdf::17                      0                       # What read queue length does an incoming req see
system.mem_ctrls.rdQLenPdf::18                      0                       # What read queue length does an incoming req see
system.mem_ctrls.rdQLenPdf::19                      0                       # What read queue length does an incoming req see
system.mem_ctrls.rdQLenPdf::20                      0                       # What read queue length does an incoming req see
system.mem_ctrls.rdQLenPdf::21                      0                       # What read queue length does an incoming req see
system.mem_ctrls.rdQLenPdf::22                      0                       # What read queue length does an incoming req see
system.mem_ctrls.rdQLenPdf::23                      0                       # What read queue length does an incoming req see
system.mem_ctrls.rdQLenPdf::24                      0                       # What read queue length does an incoming req see
system.mem_ctrls.rdQLenPdf::25                      0                       # What read queue length does an incoming req see
system.mem_ctrls.rdQLenPdf::26                      0                       # What read queue length does an incoming req see
system.mem_ctrls.rdQLenPdf::27                      0                       # What read queue length does an incoming req see
system.mem_ctrls.rdQLenPdf::28                      0                       # What read queue length does an incoming req see
system.mem_ctrls.rdQLenPdf::29                      0                       # What read queue length does an incoming req see
system.mem_ctrls.rdQLenPdf::30                      0                       # What read queue length does an incoming req see
system.mem_ctrls.rdQLenPdf::31                      0                       # What read queue length does an incoming req see
system.mem_ctrls.wrQLenPdf::0                       1                       # What write queue length does an incoming req see
system.mem_ctrls.wrQLenPdf::1                       1                       # What write queue length does an incoming req see
system.mem_ctrls.wrQLenPdf::2                       1                       # What write queue length does an incoming req see
system.mem_ctrls.wrQLenPdf::3                       1                       # What write queue length does an incoming req see
system.mem_ctrls.wrQLenPdf::4                       1                       # What write queue length does an incoming req see
system.mem_ctrls.wrQLenPdf::5                       1                       # What write queue length does an incoming req see
system.mem_ctrls.wrQLenPdf::6                       1                       # What write queue length does an incoming req see
system.mem_ctrls.wrQLenPdf::7                       1                       # What write queue length does an incoming req see
system.mem_ctrls.wrQLenPdf::8                       1                       # What write queue length does an incoming req see
system.mem_ctrls.wrQLenPdf::9                       1                       # What write queue length does an incoming req see
system.mem_ctrls.wrQLenPdf::10                      1                       # What write queue length does an incoming req see
system.mem_ctrls.wrQLenPdf::11                      1                       # What write queue length does an incoming req see
system.mem_ctrls.wrQLenPdf::12                      1                       # What write queue length does an incoming req see
system.mem_ctrls.wrQLenPdf::13                      1                       # What write queue length does an incoming req see
system.mem_ctrls.wrQLenPdf::14                      1                       # What write queue length does an incoming req see
system.mem_ctrls.wrQLenPdf::15                 142695                       # What write queue length does an incoming req see
system.mem_ctrls.wrQLenPdf::16                 159969                       # What write queue length does an incoming req see
system.mem_ctrls.wrQLenPdf::17                 243098                       # What write queue length does an incoming req see
system.mem_ctrls.wrQLenPdf::18                 302431                       # What write queue length does an incoming req see
system.mem_ctrls.wrQLenPdf::19                 321094                       # What write queue length does an incoming req see
system.mem_ctrls.wrQLenPdf::20                 329503                       # What write queue length does an incoming req see
system.mem_ctrls.wrQLenPdf::21                 340754                       # What write queue length does an incoming req see
system.mem_ctrls.wrQLenPdf::22                 349978                       # What write queue length does an incoming req see
system.mem_ctrls.wrQLenPdf::23                 355963                       # What write queue length does an incoming req see
system.mem_ctrls.wrQLenPdf::24                 367988                       # What write queue length does an incoming req see
system.mem_ctrls.wrQLenPdf::25                 374312                       # What write queue length does an incoming req see
system.mem_ctrls.wrQLenPdf::26                 379863                       # What write queue length does an incoming req see
system.mem_ctrls.wrQLenPdf::27                 386187                       # What write queue length does an incoming req see
system.mem_ctrls.wrQLenPdf::28                 392757                       # What write queue length does an incoming req see
system.mem_ctrls.wrQLenPdf::29                 394745                       # What write queue length does an incoming req see
system.mem_ctrls.wrQLenPdf::30                 397669                       # What write queue length does an incoming req see
system.mem_ctrls.wrQLenPdf::31                 401002                       # What write queue length does an incoming req see
system.mem_ctrls.wrQLenPdf::32                 408933                       # What write queue length does an incoming req see
system.mem_ctrls.wrQLenPdf::33                  85864                       # What write queue length does an incoming req see
system.mem_ctrls.wrQLenPdf::34                  92191                       # What write queue length does an incoming req see
system.mem_ctrls.wrQLenPdf::35                  98625                       # What write queue length does an incoming req see
system.mem_ctrls.wrQLenPdf::36                 105534                       # What write queue length does an incoming req see
system.mem_ctrls.wrQLenPdf::37                 104800                       # What write queue length does an incoming req see
system.mem_ctrls.wrQLenPdf::38                 141818                       # What write queue length does an incoming req see
system.mem_ctrls.wrQLenPdf::39                 113977                       # What write queue length does an incoming req see
system.mem_ctrls.wrQLenPdf::40                 133841                       # What write queue length does an incoming req see
system.mem_ctrls.wrQLenPdf::41                 109982                       # What write queue length does an incoming req see
system.mem_ctrls.wrQLenPdf::42                  98789                       # What write queue length does an incoming req see
system.mem_ctrls.wrQLenPdf::43                  99702                       # What write queue length does an incoming req see
system.mem_ctrls.wrQLenPdf::44                  77908                       # What write queue length does an incoming req see
system.mem_ctrls.wrQLenPdf::45                  72869                       # What write queue length does an incoming req see
system.mem_ctrls.wrQLenPdf::46                  51287                       # What write queue length does an incoming req see
system.mem_ctrls.wrQLenPdf::47                  46415                       # What write queue length does an incoming req see
system.mem_ctrls.wrQLenPdf::48                  43395                       # What write queue length does an incoming req see
system.mem_ctrls.wrQLenPdf::49                  39383                       # What write queue length does an incoming req see
system.mem_ctrls.wrQLenPdf::50                  36287                       # What write queue length does an incoming req see
system.mem_ctrls.wrQLenPdf::51                  28636                       # What write queue length does an incoming req see
system.mem_ctrls.wrQLenPdf::52                  22409                       # What write queue length does an incoming req see
system.mem_ctrls.wrQLenPdf::53                  14562                       # What write queue length does an incoming req see
system.mem_ctrls.wrQLenPdf::54                  10103                       # What write queue length does an incoming req see
system.mem_ctrls.wrQLenPdf::55                   7272                       # What write queue length does an incoming req see
system.mem_ctrls.wrQLenPdf::56                   4475                       # What write queue length does an incoming req see
system.mem_ctrls.wrQLenPdf::57                   3437                       # What write queue length does an incoming req see
system.mem_ctrls.wrQLenPdf::58                   2678                       # What write queue length does an incoming req see
system.mem_ctrls.wrQLenPdf::59                   2321                       # What write queue length does an incoming req see
system.mem_ctrls.wrQLenPdf::60                   1779                       # What write queue length does an incoming req see
system.mem_ctrls.wrQLenPdf::61                   1623                       # What write queue length does an incoming req see
system.mem_ctrls.wrQLenPdf::62                   1537                       # What write queue length does an incoming req see
system.mem_ctrls.wrQLenPdf::63                   6543                       # What write queue length does an incoming req see
system.mem_ctrls.bytesPerActivate::samples      6478208                       # Bytes accessed per row activation
system.mem_ctrls.bytesPerActivate::mean    225.761287                       # Bytes accessed per row activation
system.mem_ctrls.bytesPerActivate::gmean   133.509743                       # Bytes accessed per row activation
system.mem_ctrls.bytesPerActivate::stdev   287.276919                       # Bytes accessed per row activation
system.mem_ctrls.bytesPerActivate::0-127      3193419     49.29%     49.29% # Bytes accessed per row activation
system.mem_ctrls.bytesPerActivate::128-255      1727091     26.66%     75.95% # Bytes accessed per row activation
system.mem_ctrls.bytesPerActivate::256-383       467459      7.22%     83.17% # Bytes accessed per row activation
system.mem_ctrls.bytesPerActivate::384-511       213592      3.30%     86.47% # Bytes accessed per row activation
system.mem_ctrls.bytesPerActivate::512-639       127094      1.96%     88.43% # Bytes accessed per row activation
system.mem_ctrls.bytesPerActivate::640-767        81158      1.25%     89.68% # Bytes accessed per row activation
system.mem_ctrls.bytesPerActivate::768-895        58315      0.90%     90.58% # Bytes accessed per row activation
system.mem_ctrls.bytesPerActivate::896-1023        48722      0.75%     91.33% # Bytes accessed per row activation
system.mem_ctrls.bytesPerActivate::1024-1151       561358      8.67%    100.00% # Bytes accessed per row activation
system.mem_ctrls.bytesPerActivate::total      6478208                       # Bytes accessed per row activation
system.mem_ctrls.rdPerTurnAround::samples       445843                       # Reads before turning the bus around for writes
system.mem_ctrls.rdPerTurnAround::mean      33.964905                       # Reads before turning the bus around for writes
system.mem_ctrls.rdPerTurnAround::stdev     38.972360                       # Reads before turning the bus around for writes
system.mem_ctrls.rdPerTurnAround::0-511        445709     99.97%     99.97% # Reads before turning the bus around for writes
system.mem_ctrls.rdPerTurnAround::512-1023          120      0.03%    100.00% # Reads before turning the bus around for writes
system.mem_ctrls.rdPerTurnAround::1024-1535           11      0.00%    100.00% # Reads before turning the bus around for writes
system.mem_ctrls.rdPerTurnAround::1536-2047            2      0.00%    100.00% # Reads before turning the bus around for writes
system.mem_ctrls.rdPerTurnAround::12800-13311            1      0.00%    100.00% # Reads before turning the bus around for writes
system.mem_ctrls.rdPerTurnAround::total        445843                       # Reads before turning the bus around for writes
system.mem_ctrls.wrPerTurnAround::samples       445843                       # Writes before turning the bus around for reads
system.mem_ctrls.wrPerTurnAround::mean      17.290775                       # Writes before turning the bus around for reads
system.mem_ctrls.wrPerTurnAround::gmean     17.084805                       # Writes before turning the bus around for reads
system.mem_ctrls.wrPerTurnAround::stdev      3.623921                       # Writes before turning the bus around for reads
system.mem_ctrls.wrPerTurnAround::16-19        414373     92.94%     92.94% # Writes before turning the bus around for reads
system.mem_ctrls.wrPerTurnAround::20-23         17366      3.90%     96.84% # Writes before turning the bus around for reads
system.mem_ctrls.wrPerTurnAround::24-27          5601      1.26%     98.09% # Writes before turning the bus around for reads
system.mem_ctrls.wrPerTurnAround::28-31          3628      0.81%     98.91% # Writes before turning the bus around for reads
system.mem_ctrls.wrPerTurnAround::32-35          1932      0.43%     99.34% # Writes before turning the bus around for reads
system.mem_ctrls.wrPerTurnAround::36-39          1380      0.31%     99.65% # Writes before turning the bus around for reads
system.mem_ctrls.wrPerTurnAround::40-43           497      0.11%     99.76% # Writes before turning the bus around for reads
system.mem_ctrls.wrPerTurnAround::44-47           135      0.03%     99.79% # Writes before turning the bus around for reads
system.mem_ctrls.wrPerTurnAround::48-51           157      0.04%     99.83% # Writes before turning the bus around for reads
system.mem_ctrls.wrPerTurnAround::52-55            93      0.02%     99.85% # Writes before turning the bus around for reads
system.mem_ctrls.wrPerTurnAround::56-59            88      0.02%     99.87% # Writes before turning the bus around for reads
system.mem_ctrls.wrPerTurnAround::60-63            68      0.02%     99.88% # Writes before turning the bus around for reads
system.mem_ctrls.wrPerTurnAround::64-67           221      0.05%     99.93% # Writes before turning the bus around for reads
system.mem_ctrls.wrPerTurnAround::68-71            71      0.02%     99.95% # Writes before turning the bus around for reads
system.mem_ctrls.wrPerTurnAround::72-75            40      0.01%     99.96% # Writes before turning the bus around for reads
system.mem_ctrls.wrPerTurnAround::76-79            39      0.01%     99.97% # Writes before turning the bus around for reads
system.mem_ctrls.wrPerTurnAround::80-83            31      0.01%     99.97% # Writes before turning the bus around for reads
system.mem_ctrls.wrPerTurnAround::84-87            12      0.00%     99.98% # Writes before turning the bus around for reads
system.mem_ctrls.wrPerTurnAround::88-91            21      0.00%     99.98% # Writes before turning the bus around for reads
system.mem_ctrls.wrPerTurnAround::92-95             7      0.00%     99.98% # Writes before turning the bus around for reads
system.mem_ctrls.wrPerTurnAround::96-99            19      0.00%     99.99% # Writes before turning the bus around for reads
system.mem_ctrls.wrPerTurnAround::100-103            8      0.00%     99.99% # Writes before turning the bus around for reads
system.mem_ctrls.wrPerTurnAround::104-107           17      0.00%     99.99% # Writes before turning the bus around for reads
system.mem_ctrls.wrPerTurnAround::108-111            8      0.00%     99.99% # Writes before turning the bus around for reads
system.mem_ctrls.wrPerTurnAround::112-115            6      0.00%     99.99% # Writes before turning the bus around for reads
system.mem_ctrls.wrPerTurnAround::116-119            3      0.00%    100.00% # Writes before turning the bus around for reads
system.mem_ctrls.wrPerTurnAround::120-123            2      0.00%    100.00% # Writes before turning the bus around for reads
system.mem_ctrls.wrPerTurnAround::124-127            2      0.00%    100.00% # Writes before turning the bus around for reads
system.mem_ctrls.wrPerTurnAround::128-131            6      0.00%    100.00% # Writes before turning the bus around for reads
system.mem_ctrls.wrPerTurnAround::132-135            1      0.00%    100.00% # Writes before turning the bus around for reads
system.mem_ctrls.wrPerTurnAround::136-139            1      0.00%    100.00% # Writes before turning the bus around for reads
system.mem_ctrls.wrPerTurnAround::140-143            2      0.00%    100.00% # Writes before turning the bus around for reads
system.mem_ctrls.wrPerTurnAround::144-147            1      0.00%    100.00% # Writes before turning the bus around for reads
system.mem_ctrls.wrPerTurnAround::152-155            2      0.00%    100.00% # Writes before turning the bus around for reads
system.mem_ctrls.wrPerTurnAround::160-163            2      0.00%    100.00% # Writes before turning the bus around for reads
system.mem_ctrls.wrPerTurnAround::176-179            2      0.00%    100.00% # Writes before turning the bus around for reads
system.mem_ctrls.wrPerTurnAround::184-187            1      0.00%    100.00% # Writes before turning the bus around for reads
system.mem_ctrls.wrPerTurnAround::total        445843                       # Writes before turning the bus around for reads
system.mem_ctrls.totQLat                 598890849613                       # Total ticks spent queuing
system.mem_ctrls.totMemAccLat            882823430863                       # Total ticks spent from burst creation until serviced by the DRAM
system.mem_ctrls.totBusLat                75715355000                       # Total ticks spent in databus transfers
system.mem_ctrls.avgQLat                     39548.84                       # Average queueing delay per DRAM burst
system.mem_ctrls.avgBusLat                    5000.00                       # Average bus latency per DRAM burst
system.mem_ctrls.avgMemAccLat                58298.84                       # Average memory access latency per DRAM burst
system.mem_ctrls.avgRdBW                         0.21                       # Average DRAM read bandwidth in MiByte/s
system.mem_ctrls.avgWrBW                         0.11                       # Average achieved write bandwidth in MiByte/s
system.mem_ctrls.avgRdBWSys                      0.21                       # Average system read bandwidth in MiByte/s
system.mem_ctrls.avgWrBWSys                      0.11                       # Average system write bandwidth in MiByte/s
system.mem_ctrls.peakBW                      12800.00                       # Theoretical peak bandwidth in MiByte/s
system.mem_ctrls.busUtil                         0.00                       # Data bus utilization in percentage
system.mem_ctrls.busUtilRead                     0.00                       # Data bus utilization in percentage for reads
system.mem_ctrls.busUtilWrite                    0.00                       # Data bus utilization in percentage for writes
system.mem_ctrls.avgRdQLen                       1.01                       # Average read queue length when enqueuing
system.mem_ctrls.avgWrQLen                      25.21                       # Average write queue length when enqueuing
system.mem_ctrls.readRowHits                 11769524                       # Number of row buffer hits during reads
system.mem_ctrls.writeRowHits                 4604300                       # Number of row buffer hits during writes
system.mem_ctrls.readRowHitRate                 77.72                       # Row buffer hit rate for reads
system.mem_ctrls.writeRowHitRate                59.73                       # Row buffer hit rate for writes
system.mem_ctrls.avgGap                  198970681.10                       # Average gap between requests
system.mem_ctrls.pageHitRate                    71.65                       # Row buffer hit rate, read and write combined
system.mem_ctrls_0.actEnergy              21592695180                       # Energy for activate commands per rank (pJ)
system.mem_ctrls_0.preEnergy              11476766895                       # Energy for precharge commands per rank (pJ)
system.mem_ctrls_0.readEnergy             50933032920                       # Energy for read commands per rank (pJ)
system.mem_ctrls_0.writeEnergy            18881778780                       # Energy for write commands per rank (pJ)
system.mem_ctrls_0.refreshEnergy         218554920480.000031                       # Energy for refresh commands per rank (pJ)
system.mem_ctrls_0.actBackEnergy         254960987460                       # Energy for active background per rank (pJ)
system.mem_ctrls_0.preBackEnergy           9333191040                       # Energy for precharge background per rank (pJ)
system.mem_ctrls_0.actPowerDownEnergy    614523828600                       # Energy for active power-down per rank (pJ)
system.mem_ctrls_0.prePowerDownEnergy    215819379360                       # Energy for precharge power-down per rank (pJ)
system.mem_ctrls_0.selfRefreshEnergy     1092835895368740                       # Energy for self refresh per rank (pJ)
system.mem_ctrls_0.totalEnergy           1094252038294695                       # Total energy per rank (pJ)
system.mem_ctrls_0.averagePower            240.184108                       # Core power per rank (mW)
system.mem_ctrls_0.totalIdleTime         4555305009108687                       # Total Idle time Per DRAM Rank
system.mem_ctrls_0.memoryStateTime::IDLE  13617656001                       # Time in different power states
system.mem_ctrls_0.memoryStateTime::REF   92686202000                       # Time in different power states
system.mem_ctrls_0.memoryStateTime::SREF 4553395343670000                       # Time in different power states
system.mem_ctrls_0.memoryStateTime::PRE_PDN 562029240419                       # Time in different power states
system.mem_ctrls_0.memoryStateTime::ACT  477277953062                       # Time in different power states
system.mem_ctrls_0.memoryStateTime::ACT_PDN 1347636628518                       # Time in different power states
system.mem_ctrls_1.actEnergy              24661781340                       # Energy for activate commands per rank (pJ)
system.mem_ctrls_1.preEnergy              13108032465                       # Energy for precharge commands per rank (pJ)
system.mem_ctrls_1.readEnergy             57188494020                       # Energy for read commands per rank (pJ)
system.mem_ctrls_1.writeEnergy            21359049840                       # Energy for write commands per rank (pJ)
system.mem_ctrls_1.refreshEnergy         219740561040.000031                       # Energy for refresh commands per rank (pJ)
system.mem_ctrls_1.actBackEnergy         259080408240                       # Energy for active background per rank (pJ)
system.mem_ctrls_1.preBackEnergy           8830118400                       # Energy for precharge background per rank (pJ)
system.mem_ctrls_1.actPowerDownEnergy    647070788700                       # Energy for active power-down per rank (pJ)
system.mem_ctrls_1.prePowerDownEnergy    198893926080                       # Energy for precharge power-down per rank (pJ)
system.mem_ctrls_1.selfRefreshEnergy     1092825969785520                       # Energy for self refresh per rank (pJ)
system.mem_ctrls_1.totalEnergy           1094275950831645                       # Total energy per rank (pJ)
system.mem_ctrls_1.averagePower            240.189357                       # Core power per rank (mW)
system.mem_ctrls_1.totalIdleTime         4555297332201520                       # Total Idle time Per DRAM Rank
system.mem_ctrls_1.memoryStateTime::IDLE  12136935002                       # Time in different power states
system.mem_ctrls_1.memoryStateTime::REF   93171056000                       # Time in different power states
system.mem_ctrls_1.memoryStateTime::SREF 4553360362892000                       # Time in different power states
system.mem_ctrls_1.memoryStateTime::PRE_PDN 517953328116                       # Time in different power states
system.mem_ctrls_1.memoryStateTime::ACT  485951124228                       # Time in different power states
system.mem_ctrls_1.memoryStateTime::ACT_PDN 1419016014654                       # Time in different power states
system.pwrStateResidencyTicks::UNDEFINED 4555888591350000                       # Cumulative time (in ticks) in various power states
system.cf0.dma_read_full_pages                   4801                       # Number of full page size DMA reads (not PRD).
system.cf0.dma_read_bytes                    19664896                       # Number of bytes transfered via DMA reads (not PRD).
system.cf0.dma_read_txs                          4801                       # Number of DMA read transactions (not PRD).
system.cf0.dma_write_full_pages                  7273                       # Number of full page size DMA writes.
system.cf0.dma_write_bytes                   29792768                       # Number of bytes transfered via DMA writes.
system.cf0.dma_write_txs                         7276                       # Number of DMA write transactions.
system.cpu.branchPred.lookups              1392898727                       # Number of BP lookups
system.cpu.branchPred.condPredicted        1115477148                       # Number of conditional branches predicted
system.cpu.branchPred.condIncorrect          79307495                       # Number of conditional branches incorrect
system.cpu.branchPred.BTBLookups            871879265                       # Number of BTB lookups
system.cpu.branchPred.BTBHits               641122818                       # Number of BTB hits
system.cpu.branchPred.BTBCorrect                    0                       # Number of correct BTB predictions (this stat may not work properly.
system.cpu.branchPred.BTBHitPct             73.533440                       # BTB Hit Percentage
system.cpu.branchPred.usedRAS                80877737                       # Number of times the RAS was used to get a target.
system.cpu.branchPred.RASInCorrect             342013                       # Number of incorrect RAS predictions.
system.cpu.branchPred.indirectLookups        22318252                       # Number of indirect predictor lookups.
system.cpu.branchPred.indirectHits           17219211                       # Number of indirect target hits.
system.cpu.branchPred.indirectMisses          5099041                       # Number of indirect misses.
system.cpu.branchPredindirectMispredicted      1922824                       # Number of mispredicted indirect branches.
system.cpu_voltage_domain.voltage                   1                       # Voltage in Volts
system.cpu_clk_domain.clock                       500                       # Clock period in ticks
system.cpu.dstage2_mmu.stage2_tlb.walker.pwrStateResidencyTicks::UNDEFINED 4555888591350000                       # Cumulative time (in ticks) in various power states
system.cpu.dstage2_mmu.stage2_tlb.walker.walks            0                       # Table walker walks requested
system.cpu.dstage2_mmu.stage2_tlb.walker.walkRequestOrigin_Requested::Data            0                       # Table walker requests started/completed, data/inst
system.cpu.dstage2_mmu.stage2_tlb.walker.walkRequestOrigin_Requested::Inst            0                       # Table walker requests started/completed, data/inst
system.cpu.dstage2_mmu.stage2_tlb.walker.walkRequestOrigin_Requested::total            0                       # Table walker requests started/completed, data/inst
system.cpu.dstage2_mmu.stage2_tlb.walker.walkRequestOrigin_Completed::Data            0                       # Table walker requests started/completed, data/inst
system.cpu.dstage2_mmu.stage2_tlb.walker.walkRequestOrigin_Completed::Inst            0                       # Table walker requests started/completed, data/inst
system.cpu.dstage2_mmu.stage2_tlb.walker.walkRequestOrigin_Completed::total            0                       # Table walker requests started/completed, data/inst
system.cpu.dstage2_mmu.stage2_tlb.walker.walkRequestOrigin::total            0                       # Table walker requests started/completed, data/inst
system.cpu.dstage2_mmu.stage2_tlb.inst_hits            0                       # ITB inst hits
system.cpu.dstage2_mmu.stage2_tlb.inst_misses            0                       # ITB inst misses
system.cpu.dstage2_mmu.stage2_tlb.read_hits            0                       # DTB read hits
system.cpu.dstage2_mmu.stage2_tlb.read_misses            0                       # DTB read misses
system.cpu.dstage2_mmu.stage2_tlb.write_hits            0                       # DTB write hits
system.cpu.dstage2_mmu.stage2_tlb.write_misses            0                       # DTB write misses
system.cpu.dstage2_mmu.stage2_tlb.flush_tlb            0                       # Number of times complete TLB was flushed
system.cpu.dstage2_mmu.stage2_tlb.flush_tlb_mva            0                       # Number of times TLB was flushed by MVA
system.cpu.dstage2_mmu.stage2_tlb.flush_tlb_mva_asid            0                       # Number of times TLB was flushed by MVA & ASID
system.cpu.dstage2_mmu.stage2_tlb.flush_tlb_asid            0                       # Number of times TLB was flushed by ASID
system.cpu.dstage2_mmu.stage2_tlb.flush_entries            0                       # Number of entries that have been flushed from TLB
system.cpu.dstage2_mmu.stage2_tlb.align_faults            0                       # Number of TLB faults due to alignment restrictions
system.cpu.dstage2_mmu.stage2_tlb.prefetch_faults            0                       # Number of TLB faults due to prefetch
system.cpu.dstage2_mmu.stage2_tlb.domain_faults            0                       # Number of TLB faults due to domain restrictions
system.cpu.dstage2_mmu.stage2_tlb.perms_faults            0                       # Number of TLB faults due to permissions restrictions
system.cpu.dstage2_mmu.stage2_tlb.read_accesses            0                       # DTB read accesses
system.cpu.dstage2_mmu.stage2_tlb.write_accesses            0                       # DTB write accesses
system.cpu.dstage2_mmu.stage2_tlb.inst_accesses            0                       # ITB inst accesses
system.cpu.dstage2_mmu.stage2_tlb.hits              0                       # DTB hits
system.cpu.dstage2_mmu.stage2_tlb.misses            0                       # DTB misses
system.cpu.dstage2_mmu.stage2_tlb.accesses            0                       # DTB accesses
system.cpu.dtb.walker.pwrStateResidencyTicks::UNDEFINED 4555888591350000                       # Cumulative time (in ticks) in various power states
system.cpu.dtb.walker.walks                   9872322                       # Table walker walks requested
system.cpu.dtb.walker.walksLong               9872322                       # Table walker walks initiated with long descriptors
system.cpu.dtb.walker.walksLongTerminationLevel::Level2        51689                       # Level at which table walker walks with long descriptors terminate
system.cpu.dtb.walker.walksLongTerminationLevel::Level3      1372204                       # Level at which table walker walks with long descriptors terminate
system.cpu.dtb.walker.walksSquashedBefore      1326209                       # Table walks squashed before starting
system.cpu.dtb.walker.walkWaitTime::samples      8546113                       # Table walker wait (enqueue to first request) latency
system.cpu.dtb.walker.walkWaitTime::mean   309.262702                       # Table walker wait (enqueue to first request) latency
system.cpu.dtb.walker.walkWaitTime::stdev  4510.667885                       # Table walker wait (enqueue to first request) latency
system.cpu.dtb.walker.walkWaitTime::0-65535      8538311     99.91%     99.91% # Table walker wait (enqueue to first request) latency
system.cpu.dtb.walker.walkWaitTime::65536-131071         6223      0.07%     99.98% # Table walker wait (enqueue to first request) latency
system.cpu.dtb.walker.walkWaitTime::131072-196607         1010      0.01%     99.99% # Table walker wait (enqueue to first request) latency
system.cpu.dtb.walker.walkWaitTime::196608-262143          250      0.00%    100.00% # Table walker wait (enqueue to first request) latency
system.cpu.dtb.walker.walkWaitTime::262144-327679          134      0.00%    100.00% # Table walker wait (enqueue to first request) latency
system.cpu.dtb.walker.walkWaitTime::327680-393215           56      0.00%    100.00% # Table walker wait (enqueue to first request) latency
system.cpu.dtb.walker.walkWaitTime::393216-458751           15      0.00%    100.00% # Table walker wait (enqueue to first request) latency
system.cpu.dtb.walker.walkWaitTime::458752-524287           11      0.00%    100.00% # Table walker wait (enqueue to first request) latency
system.cpu.dtb.walker.walkWaitTime::524288-589823           13      0.00%    100.00% # Table walker wait (enqueue to first request) latency
system.cpu.dtb.walker.walkWaitTime::589824-655359           88      0.00%    100.00% # Table walker wait (enqueue to first request) latency
system.cpu.dtb.walker.walkWaitTime::655360-720895            2      0.00%    100.00% # Table walker wait (enqueue to first request) latency
system.cpu.dtb.walker.walkWaitTime::total      8546113                       # Table walker wait (enqueue to first request) latency
system.cpu.dtb.walker.walkCompletionTime::samples      2572988                       # Table walker service (enqueue to completion) latency
system.cpu.dtb.walker.walkCompletionTime::mean 11470.682682                       # Table walker service (enqueue to completion) latency
system.cpu.dtb.walker.walkCompletionTime::gmean  6381.123426                       # Table walker service (enqueue to completion) latency
system.cpu.dtb.walker.walkCompletionTime::stdev 28198.954384                       # Table walker service (enqueue to completion) latency
system.cpu.dtb.walker.walkCompletionTime::0-131071      2556615     99.36%     99.36% # Table walker service (enqueue to completion) latency
system.cpu.dtb.walker.walkCompletionTime::131072-262143        11276      0.44%     99.80% # Table walker service (enqueue to completion) latency
system.cpu.dtb.walker.walkCompletionTime::262144-393215         2318      0.09%     99.89% # Table walker service (enqueue to completion) latency
system.cpu.dtb.walker.walkCompletionTime::393216-524287          385      0.01%     99.91% # Table walker service (enqueue to completion) latency
system.cpu.dtb.walker.walkCompletionTime::524288-655359         2332      0.09%    100.00% # Table walker service (enqueue to completion) latency
system.cpu.dtb.walker.walkCompletionTime::655360-786431           59      0.00%    100.00% # Table walker service (enqueue to completion) latency
system.cpu.dtb.walker.walkCompletionTime::786432-917503            2      0.00%    100.00% # Table walker service (enqueue to completion) latency
system.cpu.dtb.walker.walkCompletionTime::1.31072e+06-1.44179e+06            1      0.00%    100.00% # Table walker service (enqueue to completion) latency
system.cpu.dtb.walker.walkCompletionTime::total      2572988                       # Table walker service (enqueue to completion) latency
system.cpu.dtb.walker.walksPending::samples 5825989463376                       # Table walker pending requests distribution
system.cpu.dtb.walker.walksPending::mean     0.829668                       # Table walker pending requests distribution
system.cpu.dtb.walker.walksPending::stdev     0.393542                       # Table walker pending requests distribution
system.cpu.dtb.walker.walksPending::0-1  5822366410376     99.94%     99.94% # Table walker pending requests distribution
system.cpu.dtb.walker.walksPending::2-3    2125883500      0.04%     99.97% # Table walker pending requests distribution
system.cpu.dtb.walker.walksPending::4-5     661022000      0.01%     99.99% # Table walker pending requests distribution
system.cpu.dtb.walker.walksPending::6-7     252314000      0.00%     99.99% # Table walker pending requests distribution
system.cpu.dtb.walker.walksPending::8-9     441877000      0.01%    100.00% # Table walker pending requests distribution
system.cpu.dtb.walker.walksPending::10-11     53025000      0.00%    100.00% # Table walker pending requests distribution
system.cpu.dtb.walker.walksPending::12-13     27722500      0.00%    100.00% # Table walker pending requests distribution
system.cpu.dtb.walker.walksPending::14-15     59989500      0.00%    100.00% # Table walker pending requests distribution
system.cpu.dtb.walker.walksPending::16-17       890500      0.00%    100.00% # Table walker pending requests distribution
system.cpu.dtb.walker.walksPending::18-19       198500      0.00%    100.00% # Table walker pending requests distribution
system.cpu.dtb.walker.walksPending::20-21         2500      0.00%    100.00% # Table walker pending requests distribution
system.cpu.dtb.walker.walksPending::22-23         2000      0.00%    100.00% # Table walker pending requests distribution
system.cpu.dtb.walker.walksPending::24-25       126000      0.00%    100.00% # Table walker pending requests distribution
system.cpu.dtb.walker.walksPending::total 5825989463376                       # Table walker pending requests distribution
system.cpu.dtb.walker.walkPageSizes::4K       1372204     96.37%     96.37% # Table walker page sizes translated
system.cpu.dtb.walker.walkPageSizes::2M         51689      3.63%    100.00% # Table walker page sizes translated
system.cpu.dtb.walker.walkPageSizes::total      1423893                       # Table walker page sizes translated
system.cpu.dtb.walker.walkRequestOrigin_Requested::Data      9872322                       # Table walker requests started/completed, data/inst
system.cpu.dtb.walker.walkRequestOrigin_Requested::Inst            0                       # Table walker requests started/completed, data/inst
system.cpu.dtb.walker.walkRequestOrigin_Requested::total      9872322                       # Table walker requests started/completed, data/inst
system.cpu.dtb.walker.walkRequestOrigin_Completed::Data      1423893                       # Table walker requests started/completed, data/inst
system.cpu.dtb.walker.walkRequestOrigin_Completed::Inst            0                       # Table walker requests started/completed, data/inst
system.cpu.dtb.walker.walkRequestOrigin_Completed::total      1423893                       # Table walker requests started/completed, data/inst
system.cpu.dtb.walker.walkRequestOrigin::total     11296215                       # Table walker requests started/completed, data/inst
system.cpu.dtb.inst_hits                            0                       # ITB inst hits
system.cpu.dtb.inst_misses                          0                       # ITB inst misses
system.cpu.dtb.read_hits                   1739852620                       # DTB read hits
system.cpu.dtb.read_misses                    8926960                       # DTB read misses
system.cpu.dtb.write_hits                   608444337                       # DTB write hits
system.cpu.dtb.write_misses                    945362                       # DTB write misses
system.cpu.dtb.flush_tlb                           13                       # Number of times complete TLB was flushed
system.cpu.dtb.flush_tlb_mva                        6                       # Number of times TLB was flushed by MVA
system.cpu.dtb.flush_tlb_mva_asid              114727                       # Number of times TLB was flushed by MVA & ASID
system.cpu.dtb.flush_tlb_asid                     709                       # Number of times TLB was flushed by ASID
system.cpu.dtb.flush_entries                    92378                       # Number of entries that have been flushed from TLB
system.cpu.dtb.align_faults                      1078                       # Number of TLB faults due to alignment restrictions
system.cpu.dtb.prefetch_faults                  30588                       # Number of TLB faults due to prefetch
system.cpu.dtb.domain_faults                        0                       # Number of TLB faults due to domain restrictions
system.cpu.dtb.perms_faults                    182825                       # Number of TLB faults due to permissions restrictions
system.cpu.dtb.read_accesses               1748779580                       # DTB read accesses
system.cpu.dtb.write_accesses               609389699                       # DTB write accesses
system.cpu.dtb.inst_accesses                        0                       # ITB inst accesses
system.cpu.dtb.hits                        2348296957                       # DTB hits
system.cpu.dtb.misses                         9872322                       # DTB misses
system.cpu.dtb.accesses                    2358169279                       # DTB accesses
system.cpu.istage2_mmu.stage2_tlb.walker.pwrStateResidencyTicks::UNDEFINED 4555888591350000                       # Cumulative time (in ticks) in various power states
system.cpu.istage2_mmu.stage2_tlb.walker.walks            0                       # Table walker walks requested
system.cpu.istage2_mmu.stage2_tlb.walker.walkRequestOrigin_Requested::Data            0                       # Table walker requests started/completed, data/inst
system.cpu.istage2_mmu.stage2_tlb.walker.walkRequestOrigin_Requested::Inst            0                       # Table walker requests started/completed, data/inst
system.cpu.istage2_mmu.stage2_tlb.walker.walkRequestOrigin_Requested::total            0                       # Table walker requests started/completed, data/inst
system.cpu.istage2_mmu.stage2_tlb.walker.walkRequestOrigin_Completed::Data            0                       # Table walker requests started/completed, data/inst
system.cpu.istage2_mmu.stage2_tlb.walker.walkRequestOrigin_Completed::Inst            0                       # Table walker requests started/completed, data/inst
system.cpu.istage2_mmu.stage2_tlb.walker.walkRequestOrigin_Completed::total            0                       # Table walker requests started/completed, data/inst
system.cpu.istage2_mmu.stage2_tlb.walker.walkRequestOrigin::total            0                       # Table walker requests started/completed, data/inst
system.cpu.istage2_mmu.stage2_tlb.inst_hits            0                       # ITB inst hits
system.cpu.istage2_mmu.stage2_tlb.inst_misses            0                       # ITB inst misses
system.cpu.istage2_mmu.stage2_tlb.read_hits            0                       # DTB read hits
system.cpu.istage2_mmu.stage2_tlb.read_misses            0                       # DTB read misses
system.cpu.istage2_mmu.stage2_tlb.write_hits            0                       # DTB write hits
system.cpu.istage2_mmu.stage2_tlb.write_misses            0                       # DTB write misses
system.cpu.istage2_mmu.stage2_tlb.flush_tlb            0                       # Number of times complete TLB was flushed
system.cpu.istage2_mmu.stage2_tlb.flush_tlb_mva            0                       # Number of times TLB was flushed by MVA
system.cpu.istage2_mmu.stage2_tlb.flush_tlb_mva_asid            0                       # Number of times TLB was flushed by MVA & ASID
system.cpu.istage2_mmu.stage2_tlb.flush_tlb_asid            0                       # Number of times TLB was flushed by ASID
system.cpu.istage2_mmu.stage2_tlb.flush_entries            0                       # Number of entries that have been flushed from TLB
system.cpu.istage2_mmu.stage2_tlb.align_faults            0                       # Number of TLB faults due to alignment restrictions
system.cpu.istage2_mmu.stage2_tlb.prefetch_faults            0                       # Number of TLB faults due to prefetch
system.cpu.istage2_mmu.stage2_tlb.domain_faults            0                       # Number of TLB faults due to domain restrictions
system.cpu.istage2_mmu.stage2_tlb.perms_faults            0                       # Number of TLB faults due to permissions restrictions
system.cpu.istage2_mmu.stage2_tlb.read_accesses            0                       # DTB read accesses
system.cpu.istage2_mmu.stage2_tlb.write_accesses            0                       # DTB write accesses
system.cpu.istage2_mmu.stage2_tlb.inst_accesses            0                       # ITB inst accesses
system.cpu.istage2_mmu.stage2_tlb.hits              0                       # DTB hits
system.cpu.istage2_mmu.stage2_tlb.misses            0                       # DTB misses
system.cpu.istage2_mmu.stage2_tlb.accesses            0                       # DTB accesses
system.cpu.itb.walker.pwrStateResidencyTicks::UNDEFINED 4555888591350000                       # Cumulative time (in ticks) in various power states
system.cpu.itb.walker.walks                    400926                       # Table walker walks requested
system.cpu.itb.walker.walksLong                400926                       # Table walker walks initiated with long descriptors
system.cpu.itb.walker.walksLongTerminationLevel::Level2         5980                       # Level at which table walker walks with long descriptors terminate
system.cpu.itb.walker.walksLongTerminationLevel::Level3       284444                       # Level at which table walker walks with long descriptors terminate
system.cpu.itb.walker.walksSquashedBefore        27716                       # Table walks squashed before starting
system.cpu.itb.walker.walkWaitTime::samples       373210                       # Table walker wait (enqueue to first request) latency
system.cpu.itb.walker.walkWaitTime::mean   418.087672                       # Table walker wait (enqueue to first request) latency
system.cpu.itb.walker.walkWaitTime::stdev  5864.976928                       # Table walker wait (enqueue to first request) latency
system.cpu.itb.walker.walkWaitTime::0-65535       372621     99.84%     99.84% # Table walker wait (enqueue to first request) latency
system.cpu.itb.walker.walkWaitTime::65536-131071          458      0.12%     99.96% # Table walker wait (enqueue to first request) latency
system.cpu.itb.walker.walkWaitTime::131072-196607           73      0.02%     99.98% # Table walker wait (enqueue to first request) latency
system.cpu.itb.walker.walkWaitTime::196608-262143           32      0.01%     99.99% # Table walker wait (enqueue to first request) latency
system.cpu.itb.walker.walkWaitTime::262144-327679           19      0.01%    100.00% # Table walker wait (enqueue to first request) latency
system.cpu.itb.walker.walkWaitTime::327680-393215            3      0.00%    100.00% # Table walker wait (enqueue to first request) latency
system.cpu.itb.walker.walkWaitTime::393216-458751            1      0.00%    100.00% # Table walker wait (enqueue to first request) latency
system.cpu.itb.walker.walkWaitTime::524288-589823            2      0.00%    100.00% # Table walker wait (enqueue to first request) latency
system.cpu.itb.walker.walkWaitTime::589824-655359            1      0.00%    100.00% # Table walker wait (enqueue to first request) latency
system.cpu.itb.walker.walkWaitTime::total       373210                       # Table walker wait (enqueue to first request) latency
system.cpu.itb.walker.walkCompletionTime::samples       318140                       # Table walker service (enqueue to completion) latency
system.cpu.itb.walker.walkCompletionTime::mean 11760.707311                       # Table walker service (enqueue to completion) latency
system.cpu.itb.walker.walkCompletionTime::gmean  6336.883888                       # Table walker service (enqueue to completion) latency
system.cpu.itb.walker.walkCompletionTime::stdev 25888.371652                       # Table walker service (enqueue to completion) latency
system.cpu.itb.walker.walkCompletionTime::0-65535       303040     95.25%     95.25% # Table walker service (enqueue to completion) latency
system.cpu.itb.walker.walkCompletionTime::65536-131071        13067      4.11%     99.36% # Table walker service (enqueue to completion) latency
system.cpu.itb.walker.walkCompletionTime::131072-196607         1220      0.38%     99.74% # Table walker service (enqueue to completion) latency
system.cpu.itb.walker.walkCompletionTime::196608-262143          357      0.11%     99.86% # Table walker service (enqueue to completion) latency
system.cpu.itb.walker.walkCompletionTime::262144-327679          206      0.06%     99.92% # Table walker service (enqueue to completion) latency
system.cpu.itb.walker.walkCompletionTime::327680-393215          125      0.04%     99.96% # Table walker service (enqueue to completion) latency
system.cpu.itb.walker.walkCompletionTime::393216-458751           34      0.01%     99.97% # Table walker service (enqueue to completion) latency
system.cpu.itb.walker.walkCompletionTime::458752-524287            7      0.00%     99.97% # Table walker service (enqueue to completion) latency
system.cpu.itb.walker.walkCompletionTime::524288-589823           11      0.00%     99.98% # Table walker service (enqueue to completion) latency
system.cpu.itb.walker.walkCompletionTime::589824-655359           72      0.02%    100.00% # Table walker service (enqueue to completion) latency
system.cpu.itb.walker.walkCompletionTime::655360-720895            1      0.00%    100.00% # Table walker service (enqueue to completion) latency
system.cpu.itb.walker.walkCompletionTime::total       318140                       # Table walker service (enqueue to completion) latency
system.cpu.itb.walker.walksPending::samples 1273341239616                       # Table walker pending requests distribution
system.cpu.itb.walker.walksPending::mean     0.954634                       # Table walker pending requests distribution
system.cpu.itb.walker.walksPending::stdev     0.208414                       # Table walker pending requests distribution
system.cpu.itb.walker.walksPending::0     57846987020      4.54%      4.54% # Table walker pending requests distribution
system.cpu.itb.walker.walksPending::1    1215414701096     95.45%     99.99% # Table walker pending requests distribution
system.cpu.itb.walker.walksPending::2        78557500      0.01%    100.00% # Table walker pending requests distribution
system.cpu.itb.walker.walksPending::3          875500      0.00%    100.00% # Table walker pending requests distribution
system.cpu.itb.walker.walksPending::4          118500      0.00%    100.00% # Table walker pending requests distribution
system.cpu.itb.walker.walksPending::total 1273341239616                       # Table walker pending requests distribution
system.cpu.itb.walker.walkPageSizes::4K        284444     97.94%     97.94% # Table walker page sizes translated
system.cpu.itb.walker.walkPageSizes::2M          5980      2.06%    100.00% # Table walker page sizes translated
system.cpu.itb.walker.walkPageSizes::total       290424                       # Table walker page sizes translated
system.cpu.itb.walker.walkRequestOrigin_Requested::Data            0                       # Table walker requests started/completed, data/inst
system.cpu.itb.walker.walkRequestOrigin_Requested::Inst       400926                       # Table walker requests started/completed, data/inst
system.cpu.itb.walker.walkRequestOrigin_Requested::total       400926                       # Table walker requests started/completed, data/inst
system.cpu.itb.walker.walkRequestOrigin_Completed::Data            0                       # Table walker requests started/completed, data/inst
system.cpu.itb.walker.walkRequestOrigin_Completed::Inst       290424                       # Table walker requests started/completed, data/inst
system.cpu.itb.walker.walkRequestOrigin_Completed::total       290424                       # Table walker requests started/completed, data/inst
system.cpu.itb.walker.walkRequestOrigin::total       691350                       # Table walker requests started/completed, data/inst
system.cpu.itb.inst_hits                   2785310450                       # ITB inst hits
system.cpu.itb.inst_misses                     400926                       # ITB inst misses
system.cpu.itb.read_hits                            0                       # DTB read hits
system.cpu.itb.read_misses                          0                       # DTB read misses
system.cpu.itb.write_hits                           0                       # DTB write hits
system.cpu.itb.write_misses                         0                       # DTB write misses
system.cpu.itb.flush_tlb                           13                       # Number of times complete TLB was flushed
system.cpu.itb.flush_tlb_mva                        6                       # Number of times TLB was flushed by MVA
system.cpu.itb.flush_tlb_mva_asid              114727                       # Number of times TLB was flushed by MVA & ASID
system.cpu.itb.flush_tlb_asid                     709                       # Number of times TLB was flushed by ASID
system.cpu.itb.flush_entries                    41520                       # Number of entries that have been flushed from TLB
system.cpu.itb.align_faults                         0                       # Number of TLB faults due to alignment restrictions
system.cpu.itb.prefetch_faults                      0                       # Number of TLB faults due to prefetch
system.cpu.itb.domain_faults                        0                       # Number of TLB faults due to domain restrictions
system.cpu.itb.perms_faults                    667574                       # Number of TLB faults due to permissions restrictions
system.cpu.itb.read_accesses                        0                       # DTB read accesses
system.cpu.itb.write_accesses                       0                       # DTB write accesses
system.cpu.itb.inst_accesses               2785711376                       # ITB inst accesses
system.cpu.itb.hits                        2785310450                       # DTB hits
system.cpu.itb.misses                          400926                       # DTB misses
system.cpu.itb.accesses                    2785711376                       # DTB accesses
system.cpu.numPwrStateTransitions               53402                       # Number of power state transitions
system.cpu.pwrStateClkGateDist::samples         26701                       # Distribution of time spent in the clock gated state
system.cpu.pwrStateClkGateDist::mean     170444665336.138428                       # Distribution of time spent in the clock gated state
system.cpu.pwrStateClkGateDist::stdev    359372259408.667786                       # Distribution of time spent in the clock gated state
system.cpu.pwrStateClkGateDist::underflows        20917     78.34%     78.34% # Distribution of time spent in the clock gated state
system.cpu.pwrStateClkGateDist::1000-5e+10          335      1.25%     79.59% # Distribution of time spent in the clock gated state
system.cpu.pwrStateClkGateDist::5e+10-1e+11          111      0.42%     80.01% # Distribution of time spent in the clock gated state
system.cpu.pwrStateClkGateDist::1e+11-1.5e+11           99      0.37%     80.38% # Distribution of time spent in the clock gated state
system.cpu.pwrStateClkGateDist::1.5e+11-2e+11          101      0.38%     80.76% # Distribution of time spent in the clock gated state
system.cpu.pwrStateClkGateDist::2e+11-2.5e+11          106      0.40%     81.15% # Distribution of time spent in the clock gated state
system.cpu.pwrStateClkGateDist::2.5e+11-3e+11           98      0.37%     81.52% # Distribution of time spent in the clock gated state
system.cpu.pwrStateClkGateDist::3e+11-3.5e+11          100      0.37%     81.90% # Distribution of time spent in the clock gated state
system.cpu.pwrStateClkGateDist::3.5e+11-4e+11           99      0.37%     82.27% # Distribution of time spent in the clock gated state
system.cpu.pwrStateClkGateDist::4e+11-4.5e+11           99      0.37%     82.64% # Distribution of time spent in the clock gated state
system.cpu.pwrStateClkGateDist::4.5e+11-5e+11           95      0.36%     82.99% # Distribution of time spent in the clock gated state
system.cpu.pwrStateClkGateDist::5e+11-5.5e+11           88      0.33%     83.32% # Distribution of time spent in the clock gated state
system.cpu.pwrStateClkGateDist::5.5e+11-6e+11           97      0.36%     83.69% # Distribution of time spent in the clock gated state
system.cpu.pwrStateClkGateDist::6e+11-6.5e+11           99      0.37%     84.06% # Distribution of time spent in the clock gated state
system.cpu.pwrStateClkGateDist::6.5e+11-7e+11           99      0.37%     84.43% # Distribution of time spent in the clock gated state
system.cpu.pwrStateClkGateDist::7e+11-7.5e+11           93      0.35%     84.78% # Distribution of time spent in the clock gated state
system.cpu.pwrStateClkGateDist::7.5e+11-8e+11          104      0.39%     85.17% # Distribution of time spent in the clock gated state
system.cpu.pwrStateClkGateDist::8e+11-8.5e+11           89      0.33%     85.50% # Distribution of time spent in the clock gated state
system.cpu.pwrStateClkGateDist::8.5e+11-9e+11           97      0.36%     85.86% # Distribution of time spent in the clock gated state
system.cpu.pwrStateClkGateDist::9e+11-9.5e+11          104      0.39%     86.25% # Distribution of time spent in the clock gated state
system.cpu.pwrStateClkGateDist::9.5e+11-1e+12         3671     13.75%    100.00% # Distribution of time spent in the clock gated state
system.cpu.pwrStateClkGateDist::min_value          501                       # Distribution of time spent in the clock gated state
system.cpu.pwrStateClkGateDist::max_value 999974829392                       # Distribution of time spent in the clock gated state
system.cpu.pwrStateClkGateDist::total           26701                       # Distribution of time spent in the clock gated state
system.cpu.pwrStateResidencyTicks::ON    4845582209768                       # Cumulative time (in ticks) in various power states
system.cpu.pwrStateResidencyTicks::CLK_GATED 4551043009140232                       # Cumulative time (in ticks) in various power states
system.cpu.numCycles                       9691168118                       # number of cpu cycles simulated
system.cpu.numWorkItemsStarted                      0                       # number of work items this cpu started
system.cpu.numWorkItemsCompleted                    0                       # number of work items this cpu completed
system.cpu.fetch.icacheStallCycles         3443953333                       # Number of cycles fetch is stalled on an Icache miss
system.cpu.fetch.Insts                     8446118071                       # Number of instructions fetch has processed
system.cpu.fetch.Branches                  1392898727                       # Number of branches that fetch encountered
system.cpu.fetch.predictedBranches          739219766                       # Number of branches that fetch has predicted taken
system.cpu.fetch.Cycles                    5843027370                       # Number of cycles fetch has run and was not squashing or blocked
system.cpu.fetch.SquashCycles               161216640                       # Number of cycles fetch has spent squashing
system.cpu.fetch.TlbCycles                    4748715                       # Number of cycles fetch has spent waiting for tlb
system.cpu.fetch.MiscStallCycles              8267433                       # Number of cycles fetch has spent waiting on interrupts, or bad addresses, or out of MSHRs
system.cpu.fetch.PendingTrapStallCycles      15403479                       # Number of stall cycles due to pending traps
system.cpu.fetch.PendingQuiesceStallCycles      2930065                       # Number of stall cycles due to pending quiesce instructions
system.cpu.fetch.IcacheWaitRetryStallCycles     20947041                       # Number of stall cycles due to full MSHR
system.cpu.fetch.CacheLines                2784581057                       # Number of cache lines fetched
system.cpu.fetch.IcacheSquashes              38713625                       # Number of outstanding Icache misses that were squashed
system.cpu.fetch.ItlbSquashes                   75173                       # Number of outstanding ITLB misses that were squashed
system.cpu.fetch.rateDist::samples         9419885756                       # Number of instructions fetched each cycle (Total)
system.cpu.fetch.rateDist::mean              0.955266                       # Number of instructions fetched each cycle (Total)
system.cpu.fetch.rateDist::stdev             1.202446                       # Number of instructions fetched each cycle (Total)
system.cpu.fetch.rateDist::underflows               0      0.00%      0.00% # Number of instructions fetched each cycle (Total)
system.cpu.fetch.rateDist::0               5014207364     53.23%     53.23% # Number of instructions fetched each cycle (Total)
system.cpu.fetch.rateDist::1               1828767289     19.41%     72.64% # Number of instructions fetched each cycle (Total)
system.cpu.fetch.rateDist::2                561000031      5.96%     78.60% # Number of instructions fetched each cycle (Total)
system.cpu.fetch.rateDist::3               2015911072     21.40%    100.00% # Number of instructions fetched each cycle (Total)
system.cpu.fetch.rateDist::overflows                0      0.00%    100.00% # Number of instructions fetched each cycle (Total)
system.cpu.fetch.rateDist::min_value                0                       # Number of instructions fetched each cycle (Total)
system.cpu.fetch.rateDist::max_value                3                       # Number of instructions fetched each cycle (Total)
system.cpu.fetch.rateDist::total           9419885756                       # Number of instructions fetched each cycle (Total)
system.cpu.fetch.branchRate                  0.143729                       # Number of branch fetches per cycle
system.cpu.fetch.rate                        0.871527                       # Number of inst fetches per cycle
system.cpu.decode.IdleCycles               2749634785                       # Number of cycles decode is idle
system.cpu.decode.BlockedCycles            2837387745                       # Number of cycles decode is blocked
system.cpu.decode.RunCycles                3333082449                       # Number of cycles decode is running
system.cpu.decode.UnblockCycles             429683347                       # Number of cycles decode is unblocking
system.cpu.decode.SquashCycles               70097430                       # Number of cycles decode is squashing
system.cpu.decode.BranchResolved            604669463                       # Number of times decode resolved a branch
system.cpu.decode.BranchMispred              10675135                       # Number of times decode detected a branch misprediction
system.cpu.decode.DecodedInsts             8406506930                       # Number of instructions handled by decode
system.cpu.decode.SquashedInsts             188836433                       # Number of squashed instructions handled by decode
system.cpu.rename.SquashCycles               70097430                       # Number of cycles rename is squashing
system.cpu.rename.IdleCycles               3107998068                       # Number of cycles rename is idle
system.cpu.rename.BlockCycles              1551510898                       # Number of cycles rename is blocking
system.cpu.rename.serializeStallCycles      505358832                       # count of cycles rename stalled for serializing inst
system.cpu.rename.RunCycles                3325249368                       # Number of cycles rename is running
system.cpu.rename.UnblockCycles             859671160                       # Number of cycles rename is unblocking
system.cpu.rename.RenamedInsts             8221403111                       # Number of instructions processed by rename
system.cpu.rename.SquashedInsts              75661104                       # Number of squashed instructions processed by rename
system.cpu.rename.ROBFullEvents              47192814                       # Number of times rename has blocked due to ROB full
system.cpu.rename.IQFullEvents                6007616                       # Number of times rename has blocked due to IQ full
system.cpu.rename.LQFullEvents               13628209                       # Number of times rename has blocked due to LQ full
system.cpu.rename.SQFullEvents              362446627                       # Number of times rename has blocked due to SQ full
system.cpu.rename.FullRegisterEvents        185418601                       # Number of times there has been no free registers
system.cpu.rename.RenamedOperands          9226175413                       # Number of destination operands rename has renamed
system.cpu.rename.RenameLookups           17019064454                       # Number of register rename lookups that rename has made
system.cpu.rename.int_rename_lookups       8907768868                       # Number of integer rename lookups
[...]
system.ruby.Directory_Controller.DMA_ACK::total         9805                      
system.ruby.Directory_Controller.Data    |       20118    100.00%    100.00% |           0      0.00%    100.00%
system.ruby.Directory_Controller.Data::total        20118                      
system.ruby.Directory_Controller.I.GETX  |     4903012    100.00%    100.00% |           0      0.00%    100.00%
system.ruby.Directory_Controller.I.GETX::total      4903012                      
system.ruby.Directory_Controller.I.GETS  |     3256119    100.00%    100.00% |           9      0.00%    100.00%
system.ruby.Directory_Controller.I.GETS::total      3256128                      
system.ruby.Directory_Controller.I.Memory_Ack |     7256348    100.00%    100.00% |           0      0.00%    100.00%
system.ruby.Directory_Controller.I.Memory_Ack::total      7256348                      
system.ruby.Directory_Controller.I.DMA_READ |       11556    100.00%    100.00% |           0      0.00%    100.00%
system.ruby.Directory_Controller.I.DMA_READ::total        11556                      
system.ruby.Directory_Controller.I.DMA_WRITE |      438920    100.00%    100.00% |           0      0.00%    100.00%
system.ruby.Directory_Controller.I.DMA_WRITE::total       438920                      
system.ruby.Directory_Controller.S.GETX  |     2368580    100.00%    100.00% |           0      0.00%    100.00%
system.ruby.Directory_Controller.S.GETX::total      2368580                      
system.ruby.Directory_Controller.S.GETS  |     4649012    100.00%    100.00% |           0      0.00%    100.00%
system.ruby.Directory_Controller.S.GETS::total      4649012                      
system.ruby.Directory_Controller.S.DMA_READ |      292862    100.00%    100.00% |           0      0.00%    100.00%
system.ruby.Directory_Controller.S.DMA_READ::total       292862                      
system.ruby.Directory_Controller.S.DMA_WRITE |        6474    100.00%    100.00% |           0      0.00%    100.00%
system.ruby.Directory_Controller.S.DMA_WRITE::total         6474                      
system.ruby.Directory_Controller.M.PUTX  |     7243495    100.00%    100.00% |           0      0.00%    100.00%
system.ruby.Directory_Controller.M.PUTX::total      7243495                      
system.ruby.Directory_Controller.M.DMA_READ |        9805    100.00%    100.00% |           0      0.00%    100.00%
system.ruby.Directory_Controller.M.DMA_READ::total         9805                      
system.ruby.Directory_Controller.M.DMA_WRITE |       20118    100.00%    100.00% |           0      0.00%    100.00%
system.ruby.Directory_Controller.M.DMA_WRITE::total        20118                      
system.ruby.Directory_Controller.IS.GETX |          13    100.00%    100.00% |           0      0.00%    100.00%
system.ruby.Directory_Controller.IS.GETX::total           13                      
system.ruby.Directory_Controller.IS.Unblock |     3256118    100.00%    100.00% |           9      0.00%    100.00%
system.ruby.Directory_Controller.IS.Unblock::total      3256127                      
system.ruby.Directory_Controller.IS.Memory_Data |     3256119    100.00%    100.00% |           9      0.00%    100.00%
system.ruby.Directory_Controller.IS.Memory_Data::total      3256128                      
system.ruby.Directory_Controller.IS.Memory_Ack |         278    100.00%    100.00% |           0      0.00%    100.00%
system.ruby.Directory_Controller.IS.Memory_Ack::total          278                      
system.ruby.Directory_Controller.SS.GETX |           1    100.00%    100.00% |           0      0.00%    100.00%
system.ruby.Directory_Controller.SS.GETX::total            1                      
system.ruby.Directory_Controller.SS.Last_Unblock |     4649012    100.00%    100.00% |           0      0.00%    100.00%
system.ruby.Directory_Controller.SS.Last_Unblock::total      4649012                      
system.ruby.Directory_Controller.SS.Memory_Data |     4649012    100.00%    100.00% |           0      0.00%    100.00%
system.ruby.Directory_Controller.SS.Memory_Data::total      4649012                      
system.ruby.Directory_Controller.MM.Exclusive_Unblock |     7271592    100.00%    100.00% |           0      0.00%    100.00%
system.ruby.Directory_Controller.MM.Exclusive_Unblock::total      7271592                      
system.ruby.Directory_Controller.MM.Memory_Data |     7271592    100.00%    100.00% |           0      0.00%    100.00%
system.ruby.Directory_Controller.MM.Memory_Data::total      7271592                      
system.ruby.Directory_Controller.MM.Memory_Ack |         105    100.00%    100.00% |           0      0.00%    100.00%
system.ruby.Directory_Controller.MM.Memory_Ack::total          105                      
system.ruby.Directory_Controller.MI.Dirty_Writeback |     7243495    100.00%    100.00% |           0      0.00%    100.00%
system.ruby.Directory_Controller.MI.Dirty_Writeback::total      7243495                      
system.ruby.Directory_Controller.XI_M.Memory_Data |       11556    100.00%    100.00% |           0      0.00%    100.00%
system.ruby.Directory_Controller.XI_M.Memory_Data::total        11556                      
system.ruby.Directory_Controller.XI_U.Exclusive_Unblock |      465512    100.00%    100.00% |           0      0.00%    100.00%
system.ruby.Directory_Controller.XI_U.Exclusive_Unblock::total       465512                      
system.ruby.Directory_Controller.XI_U.Memory_Ack |      452276    100.00%    100.00% |           0      0.00%    100.00%
system.ruby.Directory_Controller.XI_U.Memory_Ack::total       452276                      
system.ruby.Directory_Controller.OI_D.Data |       20118    100.00%    100.00% |           0      0.00%    100.00%
system.ruby.Directory_Controller.OI_D.Data::total        20118                      
system.ruby.Directory_Controller.MD.DMA_ACK |        9805    100.00%    100.00% |           0      0.00%    100.00%
system.ruby.Directory_Controller.MD.DMA_ACK::total         9805                      
system.ruby.DMA_Controller.ReadRequest   |           0      0.00%      0.00% |     9441613    100.00%    100.00% |           0      0.00%    100.00%
system.ruby.DMA_Controller.ReadRequest::total      9441613                      
system.ruby.DMA_Controller.WriteRequest  |           0      0.00%      0.00% |    14324168    100.00%    100.00% |           0      0.00%    100.00%
system.ruby.DMA_Controller.WriteRequest::total     14324168                      
system.ruby.DMA_Controller.Data          |           0      0.00%      0.00% |      314223    100.00%    100.00% |           0      0.00%    100.00%
system.ruby.DMA_Controller.Data::total         314223                      
system.ruby.DMA_Controller.DMA_Ack       |           0      0.00%      0.00% |      465512    100.00%    100.00% |           0      0.00%    100.00%
system.ruby.DMA_Controller.DMA_Ack::total       465512                      
system.ruby.DMA_Controller.Inv_Ack       |           0      0.00%      0.00% |        6474    100.00%    100.00% |           0      0.00%    100.00%
system.ruby.DMA_Controller.Inv_Ack::total         6474                      
system.ruby.DMA_Controller.All_Acks      |           0      0.00%      0.00% |      465512    100.00%    100.00% |           0      0.00%    100.00%
system.ruby.DMA_Controller.All_Acks::total       465512                      
system.ruby.DMA_Controller.READY.ReadRequest |           0      0.00%      0.00% |      314223    100.00%    100.00% |           0      0.00%    100.00%
system.ruby.DMA_Controller.READY.ReadRequest::total       314223                      
system.ruby.DMA_Controller.READY.WriteRequest |           0      0.00%      0.00% |      465512    100.00%    100.00% |           0      0.00%    100.00%
system.ruby.DMA_Controller.READY.WriteRequest::total       465512                      
system.ruby.DMA_Controller.BUSY_RD.ReadRequest |           0      0.00%      0.00% |     9127390    100.00%    100.00% |           0      0.00%    100.00%
system.ruby.DMA_Controller.BUSY_RD.ReadRequest::total      9127390                      
system.ruby.DMA_Controller.BUSY_RD.Data  |           0      0.00%      0.00% |      314223    100.00%    100.00% |           0      0.00%    100.00%
system.ruby.DMA_Controller.BUSY_RD.Data::total       314223                      
system.ruby.DMA_Controller.BUSY_WR.WriteRequest |           0      0.00%      0.00% |    13858656    100.00%    100.00% |           0      0.00%    100.00%
system.ruby.DMA_Controller.BUSY_WR.WriteRequest::total     13858656                      
system.ruby.DMA_Controller.BUSY_WR.DMA_Ack |           0      0.00%      0.00% |      465512    100.00%    100.00% |           0      0.00%    100.00%
system.ruby.DMA_Controller.BUSY_WR.DMA_Ack::total       465512                      
system.ruby.DMA_Controller.BUSY_WR.Inv_Ack |           0      0.00%      0.00% |        6474    100.00%    100.00% |           0      0.00%    100.00%
system.ruby.DMA_Controller.BUSY_WR.Inv_Ack::total         6474                      
system.ruby.DMA_Controller.BUSY_WR.All_Acks |           0      0.00%      0.00% |      465512    100.00%    100.00% |           0      0.00%    100.00%
system.ruby.DMA_Controller.BUSY_WR.All_Acks::total       465512                      
system.ruby.L1Cache_Controller.Load        1626276539      0.00%      0.00%
system.ruby.L1Cache_Controller.Ifetch    18446744072199569408      0.00%      0.00%
system.ruby.L1Cache_Controller.Store        601486620      0.00%      0.00%
system.ruby.L1Cache_Controller.L1_Replacement    101253837      0.00%      0.00%
system.ruby.L1Cache_Controller.Fwd_GETX           377      0.00%      0.00%
system.ruby.L1Cache_Controller.Fwd_DMA           4505      0.00%      0.00%
system.ruby.L1Cache_Controller.Inv                 14      0.00%      0.00%
system.ruby.L1Cache_Controller.Data          55069383      0.00%      0.00%
system.ruby.L1Cache_Controller.Exclusive_Data     47245779      0.00%      0.00%
system.ruby.L1Cache_Controller.Writeback_Ack     46964530      0.00%      0.00%
system.ruby.L1Cache_Controller.Writeback_Ack_Data     53836637      0.00%      0.00%
system.ruby.L1Cache_Controller.All_acks      27239490      0.00%      0.00%
system.ruby.L1Cache_Controller.Use_Timeout     47245779      0.00%      0.00%
system.ruby.L1Cache_Controller.I.Load        31322988      0.00%      0.00%
system.ruby.L1Cache_Controller.I.Ifetch      43752685      0.00%      0.00%
system.ruby.L1Cache_Controller.I.Store       25727163      0.00%      0.00%
system.ruby.L1Cache_Controller.I.L1_Replacement          330      0.00%      0.00%
system.ruby.L1Cache_Controller.S.Load       333707149      0.00%      0.00%
system.ruby.L1Cache_Controller.S.Ifetch  18446744072155205632      0.00%      0.00%
system.ruby.L1Cache_Controller.S.Store        1512327      0.00%      0.00%
system.ruby.L1Cache_Controller.S.L1_Replacement     53556487      0.00%      0.00%
system.ruby.L1Cache_Controller.S.Inv               14      0.00%      0.00%
system.ruby.L1Cache_Controller.M.Load       177451053      0.00%      0.00%
system.ruby.L1Cache_Controller.M.Ifetch          1837      0.00%      0.00%
system.ruby.L1Cache_Controller.M.Store        3119313      0.00%      0.00%
system.ruby.L1Cache_Controller.M.L1_Replacement     14080478      0.00%      0.00%
system.ruby.L1Cache_Controller.M.Fwd_GETX           22      0.00%      0.00%
system.ruby.L1Cache_Controller.M_W.Load      30861553      0.00%      0.00%
system.ruby.L1Cache_Controller.M_W.Ifetch         2200      0.00%      0.00%
system.ruby.L1Cache_Controller.M_W.Store      2806432      0.00%      0.00%
system.ruby.L1Cache_Controller.M_W.L1_Replacement       142320      0.00%      0.00%
system.ruby.L1Cache_Controller.M_W.Use_Timeout     17199857      0.00%      0.00%
system.ruby.L1Cache_Controller.MM.Load     1049122429      0.00%      0.00%
system.ruby.L1Cache_Controller.MM.Store     529306888      0.00%      0.00%
system.ruby.L1Cache_Controller.MM.L1_Replacement     33164203      0.00%      0.00%
system.ruby.L1Cache_Controller.MM.Fwd_GETX          355      0.00%      0.00%
system.ruby.L1Cache_Controller.MM.Fwd_DMA         4505      0.00%      0.00%
system.ruby.L1Cache_Controller.MM_W.Load      3224531      0.00%      0.00%
system.ruby.L1Cache_Controller.MM_W.Store     38982870      0.00%      0.00%
system.ruby.L1Cache_Controller.MM_W.L1_Replacement       208212      0.00%      0.00%
system.ruby.L1Cache_Controller.MM_W.Use_Timeout     30045922      0.00%      0.00%
system.ruby.L1Cache_Controller.IM.L1_Replacement        20272      0.00%      0.00%
system.ruby.L1Cache_Controller.IM.Exclusive_Data     25727163      0.00%      0.00%
system.ruby.L1Cache_Controller.SM.L1_Replacement        27265      0.00%      0.00%
system.ruby.L1Cache_Controller.SM.Exclusive_Data      1512327      0.00%      0.00%
system.ruby.L1Cache_Controller.OM.L1_Replacement          394      0.00%      0.00%
system.ruby.L1Cache_Controller.OM.All_acks     27239490      0.00%      0.00%
system.ruby.L1Cache_Controller.IS.L1_Replacement        53876      0.00%      0.00%
system.ruby.L1Cache_Controller.IS.Data       55069383      0.00%      0.00%
system.ruby.L1Cache_Controller.IS.Exclusive_Data     20006289      0.00%      0.00%
system.ruby.L1Cache_Controller.SI.Load         495562      0.00%      0.00%
system.ruby.L1Cache_Controller.SI.Ifetch       606771      0.00%      0.00%
system.ruby.L1Cache_Controller.SI.Store          3818      0.00%      0.00%
system.ruby.L1Cache_Controller.SI.Writeback_Ack     46964530      0.00%      0.00%
system.ruby.L1Cache_Controller.SI.Writeback_Ack_Data      6591956      0.00%      0.00%
system.ruby.L1Cache_Controller.MI.Load          91274      0.00%      0.00%
system.ruby.L1Cache_Controller.MI.Ifetch           80      0.00%      0.00%
system.ruby.L1Cache_Controller.MI.Store         27809      0.00%      0.00%
system.ruby.L1Cache_Controller.MI.Writeback_Ack_Data     47244681      0.00%      0.00%
system.ruby.L2Cache_Controller.L1_GETS       75081741      0.00%      0.00%
system.ruby.L2Cache_Controller.L1_GETX       27241013      0.00%      0.00%
system.ruby.L2Cache_Controller.L1_PUTX       47244720      0.00%      0.00%
system.ruby.L2Cache_Controller.L1_PUTS_only     53556487      0.00%      0.00%
system.ruby.L2Cache_Controller.L1_PUTS             31      0.00%      0.00%
system.ruby.L2Cache_Controller.Fwd_GETX         20118      0.00%      0.00%
system.ruby.L2Cache_Controller.Fwd_DMA           9852      0.00%      0.00%
system.ruby.L2Cache_Controller.Inv               6474      0.00%      0.00%
system.ruby.L2Cache_Controller.IntAck              14      0.00%      0.00%
system.ruby.L2Cache_Controller.All_Acks       7271606      0.00%      0.00%
system.ruby.L2Cache_Controller.Data          15176732      0.00%      0.00%
system.ruby.L2Cache_Controller.Data_Exclusive          377      0.00%      0.00%
system.ruby.L2Cache_Controller.L1_WBCLEANDATA      6591956      0.00%      0.00%
system.ruby.L2Cache_Controller.L1_WBDIRTYDATA     47244681      0.00%      0.00%
system.ruby.L2Cache_Controller.Writeback_Ack      7243495      0.00%      0.00%
system.ruby.L2Cache_Controller.Unblock      102033913      0.00%      0.00%
system.ruby.L2Cache_Controller.Exclusive_Unblock     47245779      0.00%      0.00%
system.ruby.L2Cache_Controller.DmaAck            4505      0.00%      0.00%
system.ruby.L2Cache_Controller.L2_Replacement     13437433      0.00%      0.00%
system.ruby.L2Cache_Controller.NP.L1_GETS      7905021      0.00%      0.00%
system.ruby.L2Cache_Controller.NP.L1_GETX      5545192      0.00%      0.00%
system.ruby.L2Cache_Controller.NP.Inv            4109      0.00%      0.00%
system.ruby.L2Cache_Controller.I.L1_GETS          120      0.00%      0.00%
system.ruby.L2Cache_Controller.I.L1_GETX            1      0.00%      0.00%
system.ruby.L2Cache_Controller.ILS.L1_GETX      1339396      0.00%      0.00%
system.ruby.L2Cache_Controller.ILS.L1_PUTS_only      6591957      0.00%      0.00%
system.ruby.L2Cache_Controller.ILS.Inv             12      0.00%      0.00%
system.ruby.L2Cache_Controller.ILX.L1_PUTX     47244681      0.00%      0.00%
system.ruby.L2Cache_Controller.ILX.Fwd_GETX          377      0.00%      0.00%
system.ruby.L2Cache_Controller.ILX.Fwd_DMA         4505      0.00%      0.00%
system.ruby.L2Cache_Controller.S.L1_GETS     47164243      0.00%      0.00%
system.ruby.L2Cache_Controller.S.L1_GETX       214072      0.00%      0.00%
system.ruby.L2Cache_Controller.S.Inv             2351      0.00%      0.00%
system.ruby.L2Cache_Controller.S.L2_Replacement      6167423      0.00%      0.00%
system.ruby.L2Cache_Controller.SLS.L1_GETX       172931      0.00%      0.00%
system.ruby.L2Cache_Controller.SLS.L1_PUTS_only     46964530      0.00%      0.00%
system.ruby.L2Cache_Controller.SLS.Inv              2      0.00%      0.00%
system.ruby.L2Cache_Controller.SLS.L2_Replacement        26496      0.00%      0.00%
system.ruby.L2Cache_Controller.M.L1_GETS     20006289      0.00%      0.00%
system.ruby.L2Cache_Controller.M.L1_GETX     19967898      0.00%      0.00%
system.ruby.L2Cache_Controller.M.Fwd_GETX        19741      0.00%      0.00%
system.ruby.L2Cache_Controller.M.Fwd_DMA         5300      0.00%      0.00%
system.ruby.L2Cache_Controller.M.L2_Replacement      7243495      0.00%      0.00%
system.ruby.L2Cache_Controller.IFGX.Data_Exclusive          377      0.00%      0.00%
system.ruby.L2Cache_Controller.IW.L1_GETS          439      0.00%      0.00%
system.ruby.L2Cache_Controller.IW.L1_WBCLEANDATA      6591956      0.00%      0.00%
system.ruby.L2Cache_Controller.SW.L1_GETS         2655      0.00%      0.00%
system.ruby.L2Cache_Controller.SW.L1_GETX           35      0.00%      0.00%
system.ruby.L2Cache_Controller.SW.Unblock     46964530      0.00%      0.00%
system.ruby.L2Cache_Controller.SW.L2_Replacement           19      0.00%      0.00%
system.ruby.L2Cache_Controller.ILXW.L1_GETS         2799      0.00%      0.00%
system.ruby.L2Cache_Controller.ILXW.L1_GETX          795      0.00%      0.00%
system.ruby.L2Cache_Controller.ILXW.Fwd_DMA           47      0.00%      0.00%
system.ruby.L2Cache_Controller.ILXW.L1_WBDIRTYDATA     47244681      0.00%      0.00%
system.ruby.L2Cache_Controller.IGS.L1_GETX           39      0.00%      0.00%
system.ruby.L2Cache_Controller.IGS.Data       7905140      0.00%      0.00%
system.ruby.L2Cache_Controller.IGS.Unblock      7905140      0.00%      0.00%
system.ruby.L2Cache_Controller.IGM.Data       5759265      0.00%      0.00%
system.ruby.L2Cache_Controller.IGMLS.Data      1512327      0.00%      0.00%
system.ruby.L2Cache_Controller.IGMO.All_Acks      7271592      0.00%      0.00%
system.ruby.L2Cache_Controller.IGMO.Exclusive_Unblock      7271592      0.00%      0.00%
system.ruby.L2Cache_Controller.II.IntAck           14      0.00%      0.00%
system.ruby.L2Cache_Controller.II.All_Acks           14      0.00%      0.00%
system.ruby.L2Cache_Controller.MM.Exclusive_Unblock     19967898      0.00%      0.00%
system.ruby.L2Cache_Controller.SS.L1_GETX           13      0.00%      0.00%
system.ruby.L2Cache_Controller.SS.L1_PUTS           31      0.00%      0.00%
system.ruby.L2Cache_Controller.SS.Unblock     47164243      0.00%      0.00%
system.ruby.L2Cache_Controller.OO.L1_PUTX           39      0.00%      0.00%
system.ruby.L2Cache_Controller.OO.Exclusive_Unblock     20006289      0.00%      0.00%
system.ruby.L2Cache_Controller.MI.L1_GETS          175      0.00%      0.00%
system.ruby.L2Cache_Controller.MI.L1_GETX          641      0.00%      0.00%
system.ruby.L2Cache_Controller.MI.Writeback_Ack      7243495      0.00%      0.00%
system.ruby.L2Cache_Controller.ILXD.DmaAck         4505      0.00%      0.00%

---------- End Simulation Statistics   ----------