
---------- Begin Simulation Statistics ----------
sim_seconds                               1176.858950                       # Number of seconds simulated
sim_ticks                                1176858949798500                       # Number of ticks simulated
final_tick                               1176858949798500                       # Number of ticks from beginning of simulation (restored from checkpoints and never reset)
sim_freq                                 1000000000000                       # Frequency of simulated ticks
host_inst_rate                                 158066                       # Simulator instruction rate (inst/s)
host_op_rate                                   168504                       # Simulator op (including micro ops) rate (op/s)
host_tick_rate                            26486988881                       # Simulator tick rate (ticks/s)
host_mem_usage                                2705232                       # Number of bytes of host memory used
host_seconds                                 44431.59                       # Real time elapsed on the host
sim_insts                                  7023121872                       # Number of instructions simulated
sim_ops                                    7486878855                       # Number of ops (including micro ops) simulated
system.voltage_domain.voltage                       1                       # Voltage in Volts
system.clk_domain.clock                          1000                       # Clock period in ticks
system.bootmem.pwrStateResidencyTicks::UNDEFINED 1176858949798500                       # Cumulative time (in ticks) in various power states
system.bootmem.bytes_read::ruby.network.ext_links3.ext_node          576                       # Number of bytes read from this memory
system.bootmem.bytes_read::total                  576                       # Number of bytes read from this memory
system.bootmem.num_reads::ruby.network.ext_links3.ext_node            9                       # Number of read requests responded to by this memory
system.bootmem.num_reads::total                     9                       # Number of read requests responded to by this memory
system.bootmem.bw_read::ruby.network.ext_links3.ext_node            0                       # Total read bandwidth from this memory (bytes/s)
system.bootmem.bw_read::total                       0                       # Total read bandwidth from this memory (bytes/s)
system.bootmem.bw_total::ruby.network.ext_links3.ext_node            0                       # Total bandwidth to/from this memory (bytes/s)
system.bootmem.bw_total::total                      0                       # Total bandwidth to/from this memory (bytes/s)
system.mem_ctrls.pwrStateResidencyTicks::UNDEFINED 1176858949798500                       # Cumulative time (in ticks) in various power states
system.mem_ctrls.bytes_read::ruby.dir_cntrl0    971001152                       # Number of bytes read from this memory
system.mem_ctrls.bytes_read::total          971001152                       # Number of bytes read from this memory
system.mem_ctrls.bytes_written::ruby.dir_cntrl0    492933056                       # Number of bytes written to this memory
system.mem_ctrls.bytes_written::total       492933056                       # Number of bytes written to this memory
system.mem_ctrls.num_reads::ruby.dir_cntrl0     15171893                       # Number of read requests responded to by this memory
system.mem_ctrls.num_reads::total            15171893                       # Number of read requests responded to by this memory
system.mem_ctrls.num_writes::ruby.dir_cntrl0      7702079                       # Number of write requests responded to by this memory
system.mem_ctrls.num_writes::total            7702079                       # Number of write requests responded to by this memory
system.mem_ctrls.bw_read::ruby.dir_cntrl0       825079                       # Total read bandwidth from this memory (bytes/s)
system.mem_ctrls.bw_read::total                825079                       # Total read bandwidth from this memory (bytes/s)
system.mem_ctrls.bw_write::ruby.dir_cntrl0       418855                       # Write bandwidth from this memory (bytes/s)
system.mem_ctrls.bw_write::total               418855                       # Write bandwidth from this memory (bytes/s)
system.mem_ctrls.bw_total::ruby.dir_cntrl0      1243933                       # Total bandwidth to/from this memory (bytes/s)
system.mem_ctrls.bw_total::total              1243933                       # Total bandwidth to/from this memory (bytes/s)
system.mem_ctrls.readReqs                    15171893                       # Number of read requests accepted
system.mem_ctrls.writeReqs                    7702079                       # Number of write requests accepted
system.mem_ctrls.readBursts                  15171893                       # Number of DRAM read bursts, including those serviced by the write queue
system.mem_ctrls.writeBursts                  7702079                       # Number of DRAM write bursts, including those merged in the write queue
system.mem_ctrls.bytesReadDRAM              968088704                       # Total number of bytes read from DRAM
system.mem_ctrls.bytesReadWrQ                 2912448                       # Total number of bytes read from write queue
system.mem_ctrls.bytesWritten               492931008                       # Total number of bytes written to DRAM
system.mem_ctrls.bytesReadSys               971001152                       # Total read bytes from the system interface side
system.mem_ctrls.bytesWrittenSys            492933056                       # Total written bytes from the system interface side
system.mem_ctrls.servicedByWrQ                  45507                       # Number of DRAM read bursts serviced by the write queue
system.mem_ctrls.mergedWrBursts                    10                       # Number of DRAM write bursts merged with an existing one
system.mem_ctrls.neitherReadNorWriteReqs            0                       # Number of requests that are neither read nor write
system.mem_ctrls.perBankRdBursts::0            965734                       # Per bank write bursts
system.mem_ctrls.perBankRdBursts::1           1022985                       # Per bank write bursts
system.mem_ctrls.perBankRdBursts::2            942664                       # Per bank write bursts
system.mem_ctrls.perBankRdBursts::3            951819                       # Per bank write bursts
system.mem_ctrls.perBankRdBursts::4            741888                       # Per bank write bursts
system.mem_ctrls.perBankRdBursts::5            885064                       # Per bank write bursts
system.mem_ctrls.perBankRdBursts::6            809147                       # Per bank write bursts
system.mem_ctrls.perBankRdBursts::7            791320                       # Per bank write bursts
system.mem_ctrls.perBankRdBursts::8            817571                       # Per bank write bursts
system.mem_ctrls.perBankRdBursts::9           1127304                       # Per bank write bursts
system.mem_ctrls.perBankRdBursts::10           900738                       # Per bank write bursts
system.mem_ctrls.perBankRdBursts::11          1018578                       # Per bank write bursts
system.mem_ctrls.perBankRdBursts::12          1128961                       # Per bank write bursts
system.mem_ctrls.perBankRdBursts::13          1005512                       # Per bank write bursts
system.mem_ctrls.perBankRdBursts::14          1080378                       # Per bank write bursts
system.mem_ctrls.perBankRdBursts::15           936723                       # Per bank write bursts
system.mem_ctrls.perBankWrBursts::0            488633                       # Per bank write bursts
system.mem_ctrls.perBankWrBursts::1            525446                       # Per bank write bursts
system.mem_ctrls.perBankWrBursts::2            432523                       # Per bank write bursts
system.mem_ctrls.perBankWrBursts::3            469388                       # Per bank write bursts
system.mem_ctrls.perBankWrBursts::4            395853                       # Per bank write bursts
system.mem_ctrls.perBankWrBursts::5            438653                       # Per bank write bursts
system.mem_ctrls.perBankWrBursts::6            405380                       # Per bank write bursts
system.mem_ctrls.perBankWrBursts::7            450689                       # Per bank write bursts
system.mem_ctrls.perBankWrBursts::8            452102                       # Per bank write bursts
system.mem_ctrls.perBankWrBursts::9            563044                       # Per bank write bursts
system.mem_ctrls.perBankWrBursts::10           481292                       # Per bank write bursts
system.mem_ctrls.perBankWrBursts::11           541667                       # Per bank write bursts
system.mem_ctrls.perBankWrBursts::12           538119                       # Per bank write bursts
system.mem_ctrls.perBankWrBursts::13           525225                       # Per bank write bursts
system.mem_ctrls.perBankWrBursts::14           486705                       # Per bank write bursts
system.mem_ctrls.perBankWrBursts::15           507328                       # Per bank write bursts
system.mem_ctrls.numRdRetry                         0                       # Number of times read queue was full causing retry
system.mem_ctrls.numWrRetry                      5103                       # Number of times write queue was full causing retry
system.mem_ctrls.totGap                  1176858949229500                       # Total gap between requests
system.mem_ctrls.readPktSize::0                     0                       # Read request sizes (log2)
system.mem_ctrls.readPktSize::1                     0                       # Read request sizes (log2)
system.mem_ctrls.readPktSize::2                     0                       # Read request sizes (log2)
system.mem_ctrls.readPktSize::3                     0                       # Read request sizes (log2)
system.mem_ctrls.readPktSize::4                     0                       # Read request sizes (log2)
system.mem_ctrls.readPktSize::5                     0                       # Read request sizes (log2)
system.mem_ctrls.readPktSize::6              15171893                       # Read request sizes (log2)
system.mem_ctrls.writePktSize::0                    0                       # Write request sizes (log2)
system.mem_ctrls.writePktSize::1                    0                       # Write request sizes (log2)
system.mem_ctrls.writePktSize::2                    0                       # Write request sizes (log2)
system.mem_ctrls.writePktSize::3                    0                       # Write request sizes (log2)
system.mem_ctrls.writePktSize::4                    0                       # Write request sizes (log2)
system.mem_ctrls.writePktSize::5                    0                       # Write request sizes (log2)
system.mem_ctrls.writePktSize::6              7702079                       # Write request sizes (log2)
system.mem_ctrls.rdQLenPdf::0                 8581802                       # What read queue length does an incoming req see
system.mem_ctrls.rdQLenPdf::1                 2343906                       # What read queue length does an incoming req see
system.mem_ctrls.rdQLenPdf::2                  509054                       # What read queue length does an incoming req see
system.mem_ctrls.rdQLenPdf::3                  295288                       # What read queue length does an incoming req see
system.mem_ctrls.rdQLenPdf::4                  239780                       # What read queue length does an incoming req see
system.mem_ctrls.rdQLenPdf::5                  346630                       # What read queue length does an incoming req see
system.mem_ctrls.rdQLenPdf::6                  485382                       # What read queue length does an incoming req see
system.mem_ctrls.rdQLenPdf::7                  614744                       # What read queue length does an incoming req see
system.mem_ctrls.rdQLenPdf::8                  247146                       # What read queue length does an incoming req see
system.mem_ctrls.rdQLenPdf::9                  243770                       # What read queue length does an incoming req see
system.mem_ctrls.rdQLenPdf::10                 246798                       # What read queue length does an incoming req see
system.mem_ctrls.rdQLenPdf::11                 245055                       # What read queue length does an incoming req see
system.mem_ctrls.rdQLenPdf::12                 232791                       # What read queue length does an incoming req see
system.mem_ctrls.rdQLenPdf::13                 212743                       # What read queue length does an incoming req see
system.mem_ctrls.rdQLenPdf::14                 144518                       # What read queue length does an incoming req see
system.mem_ctrls.rdQLenPdf::15                 136978                       # What read queue length does an incoming req see
system.mem_ctrls.rdQLenPdf::16                      1                       # What read queue length does an incoming req see
system.mem_ctrls.rdQLenPdf::17                      0                       # What read queue length does an incoming req see
system.mem_ctrls.rdQLenPdf::18                      0                       # What read queue length does an incoming req see
system.mem_ctrls.rdQLenPdf::19                      0                       # What read queue length does an incoming req see
system.mem_ctrls.rdQLenPdf::20                      0                       # What read queue length does an incoming req see
system.mem_ctrls.rdQLenPdf::21                      0                       # What read queue length does an incoming req see
system.mem_ctrls.rdQLenPdf::22                      0                       # What read queue length does an incoming req see
system.mem_ctrls.rdQLenPdf::23                      0                       # What read queue length does an incoming req see
system.mem_ctrls.rdQLenPdf::24                      0                       # What read queue length does an incoming req see
system.mem_ctrls.rdQLenPdf::25                      0                       # What read queue length does an incoming req see
system.mem_ctrls.rdQLenPdf::26                      0                       # What read queue length does an incoming req see
system.mem_ctrls.rdQLenPdf::27                      0                       # What read queue length does an incoming req see
system.mem_ctrls.rdQLenPdf::28                      0                       # What read queue length does an incoming req see
system.mem_ctrls.rdQLenPdf::29                      0                       # What read queue length does an incoming req see
system.mem_ctrls.rdQLenPdf::30                      0                       # What read queue length does an incoming req see
system.mem_ctrls.rdQLenPdf::31                      0                       # What read queue length does an incoming req see
system.mem_ctrls.wrQLenPdf::0                       1                       # What write queue length does an incoming req see
system.mem_ctrls.wrQLenPdf::1                       1                       # What write queue length does an incoming req see
system.mem_ctrls.wrQLenPdf::2                       1                       # What write queue length does an incoming req see
system.mem_ctrls.wrQLenPdf::3                       1                       # What write queue length does an incoming req see
system.mem_ctrls.wrQLenPdf::4                       1                       # What write queue length does an incoming req see
system.mem_ctrls.wrQLenPdf::5                       1                       # What write queue length does an incoming req see
system.mem_ctrls.wrQLenPdf::6                       1                       # What write queue length does an incoming req see
system.mem_ctrls.wrQLenPdf::7                       1                       # What write queue length does an incoming req see
system.mem_ctrls.wrQLenPdf::8                       1                       # What write queue length does an incoming req see
system.mem_ctrls.wrQLenPdf::9                       1                       # What write queue length does an incoming req see
system.mem_ctrls.wrQLenPdf::10                      1                       # What write queue length does an incoming req see
system.mem_ctrls.wrQLenPdf::11                      1                       # What write queue length does an incoming req see
system.mem_ctrls.wrQLenPdf::12                      1                       # What write queue length does an incoming req see
system.mem_ctrls.wrQLenPdf::13                      1                       # What write queue length does an incoming req see
system.mem_ctrls.wrQLenPdf::14                      1                       # What write queue length does an incoming req see
system.mem_ctrls.wrQLenPdf::15                 141781                       # What write queue length does an incoming req see
system.mem_ctrls.wrQLenPdf::16                 159123                       # What write queue length does an incoming req see
system.mem_ctrls.wrQLenPdf::17                 242614                       # What write queue length does an incoming req see
system.mem_ctrls.wrQLenPdf::18                 301900                       # What write queue length does an incoming req see
system.mem_ctrls.wrQLenPdf::19                 320616                       # What write queue length does an incoming req see
system.mem_ctrls.wrQLenPdf::20                 329191                       # What write queue length does an incoming req see
system.mem_ctrls.wrQLenPdf::21                 340915                       # What write queue length does an incoming req see
system.mem_ctrls.wrQLenPdf::22                 349834                       # What write queue length does an incoming req see
system.mem_ctrls.wrQLenPdf::23                 356034                       # What write queue length does an incoming req see
system.mem_ctrls.wrQLenPdf::24                 367790                       # What write queue length does an incoming req see
system.mem_ctrls.wrQLenPdf::25                 374580                       # What write queue length does an incoming req see
system.mem_ctrls.wrQLenPdf::26                 379983                       # What write queue length does an incoming req see
system.mem_ctrls.wrQLenPdf::27                 385385                       # What write queue length does an incoming req see
system.mem_ctrls.wrQLenPdf::28                 392562                       # What write queue length does an incoming req see
system.mem_ctrls.wrQLenPdf::29                 394097                       # What write queue length does an incoming req see
system.mem_ctrls.wrQLenPdf::30                 397248                       # What write queue length does an incoming req see
system.mem_ctrls.wrQLenPdf::31                 400725                       # What write queue length does an incoming req see
system.mem_ctrls.wrQLenPdf::32                 408371                       # What write queue length does an incoming req see
system.mem_ctrls.wrQLenPdf::33                  85468                       # What write queue length does an incoming req see
system.mem_ctrls.wrQLenPdf::34                  91932                       # What write queue length does an incoming req see
system.mem_ctrls.wrQLenPdf::35                  98743                       # What write queue length does an incoming req see
system.mem_ctrls.wrQLenPdf::36                 105395                       # What write queue length does an incoming req see
system.mem_ctrls.wrQLenPdf::37                 104849                       # What write queue length does an incoming req see
system.mem_ctrls.wrQLenPdf::38                 141884                       # What write queue length does an incoming req see
system.mem_ctrls.wrQLenPdf::39                 114136                       # What write queue length does an incoming req see
system.mem_ctrls.wrQLenPdf::40                 133986                       # What write queue length does an incoming req see
system.mem_ctrls.wrQLenPdf::41                 109973                       # What write queue length does an incoming req see
system.mem_ctrls.wrQLenPdf::42                  98795                       # What write queue length does an incoming req see
system.mem_ctrls.wrQLenPdf::43                  99544                       # What write queue length does an incoming req see
system.mem_ctrls.wrQLenPdf::44                  77692                       # What write queue length does an incoming req see
system.mem_ctrls.wrQLenPdf::45                  72636                       # What write queue length does an incoming req see
system.mem_ctrls.wrQLenPdf::46                  51210                       # What write queue length does an incoming req see
system.mem_ctrls.wrQLenPdf::47                  46433                       # What write queue length does an incoming req see
system.mem_ctrls.wrQLenPdf::48                  43459                       # What write queue length does an incoming req see
system.mem_ctrls.wrQLenPdf::49                  39405                       # What write queue length does an incoming req see
system.mem_ctrls.wrQLenPdf::50                  36315                       # What write queue length does an incoming req see
system.mem_ctrls.wrQLenPdf::51                  28675                       # What write queue length does an incoming req see
system.mem_ctrls.wrQLenPdf::52                  22456                       # What write queue length does an incoming req see
system.mem_ctrls.wrQLenPdf::53                  14580                       # What write queue length does an incoming req see
system.mem_ctrls.wrQLenPdf::54                  10118                       # What write queue length does an incoming req see
system.mem_ctrls.wrQLenPdf::55                   7265                       # What write queue length does an incoming req see
system.mem_ctrls.wrQLenPdf::56                   4465                       # What write queue length does an incoming req see
system.mem_ctrls.wrQLenPdf::57                   3431                       # What write queue length does an incoming req see
system.mem_ctrls.wrQLenPdf::58                   2684                       # What write queue length does an incoming req see
system.mem_ctrls.wrQLenPdf::59                   2323                       # What write queue length does an incoming req see
system.mem_ctrls.wrQLenPdf::60                   1782                       # What write queue length does an incoming req see
system.mem_ctrls.wrQLenPdf::61                   1617                       # What write queue length does an incoming req see
system.mem_ctrls.wrQLenPdf::62                   1521                       # What write queue length does an incoming req see
system.mem_ctrls.wrQLenPdf::63                   6533                       # What write queue length does an incoming req see
system.mem_ctrls.bytesPerActivate::samples      6465730                       # Bytes accessed per row activation
system.mem_ctrls.bytesPerActivate::mean    225.963366                       # Bytes accessed per row activation
system.mem_ctrls.bytesPerActivate::gmean   133.603280                       # Bytes accessed per row activation
system.mem_ctrls.bytesPerActivate::stdev   287.469774                       # Bytes accessed per row activation
system.mem_ctrls.bytesPerActivate::0-127      3184814     49.26%     49.26% # Bytes accessed per row activation
system.mem_ctrls.bytesPerActivate::128-255      1725096     26.68%     75.94% # Bytes accessed per row activation
system.mem_ctrls.bytesPerActivate::256-383       466822      7.22%     83.16% # Bytes accessed per row activation
system.mem_ctrls.bytesPerActivate::384-511       213001      3.29%     86.45% # Bytes accessed per row activation
system.mem_ctrls.bytesPerActivate::512-639       126315      1.95%     88.41% # Bytes accessed per row activation
system.mem_ctrls.bytesPerActivate::640-767        81234      1.26%     89.66% # Bytes accessed per row activation
system.mem_ctrls.bytesPerActivate::768-895        58245      0.90%     90.56% # Bytes accessed per row activation
system.mem_ctrls.bytesPerActivate::896-1023        49055      0.76%     91.32% # Bytes accessed per row activation
system.mem_ctrls.bytesPerActivate::1024-1151       561148      8.68%    100.00% # Bytes accessed per row activation
system.mem_ctrls.bytesPerActivate::total      6465730                       # Bytes accessed per row activation
system.mem_ctrls.rdPerTurnAround::samples       445515                       # Reads before turning the bus around for writes
system.mem_ctrls.rdPerTurnAround::mean      33.952522                       # Reads before turning the bus around for writes
system.mem_ctrls.rdPerTurnAround::stdev     38.717667                       # Reads before turning the bus around for writes
system.mem_ctrls.rdPerTurnAround::0-511        445385     99.97%     99.97% # Reads before turning the bus around for writes
system.mem_ctrls.rdPerTurnAround::512-1023          119      0.03%    100.00% # Reads before turning the bus around for writes
system.mem_ctrls.rdPerTurnAround::1024-1535            8      0.00%    100.00% # Reads before turning the bus around for writes
system.mem_ctrls.rdPerTurnAround::1536-2047            2      0.00%    100.00% # Reads before turning the bus around for writes
system.mem_ctrls.rdPerTurnAround::12800-13311            1      0.00%    100.00% # Reads before turning the bus around for writes
system.mem_ctrls.rdPerTurnAround::total        445515                       # Reads before turning the bus around for writes
system.mem_ctrls.wrPerTurnAround::samples       445515                       # Writes before turning the bus around for reads
system.mem_ctrls.wrPerTurnAround::mean      17.287963                       # Writes before turning the bus around for reads
system.mem_ctrls.wrPerTurnAround::gmean     17.081237                       # Writes before turning the bus around for reads
system.mem_ctrls.wrPerTurnAround::stdev      3.630727                       # Writes before turning the bus around for reads
system.mem_ctrls.wrPerTurnAround::16-19        414209     92.97%     92.97% # Writes before turning the bus around for reads
system.mem_ctrls.wrPerTurnAround::20-23         17174      3.85%     96.83% # Writes before turning the bus around for reads
system.mem_ctrls.wrPerTurnAround::24-27          5603      1.26%     98.09% # Writes before turning the bus around for reads
system.mem_ctrls.wrPerTurnAround::28-31          3643      0.82%     98.90% # Writes before turning the bus around for reads
system.mem_ctrls.wrPerTurnAround::32-35          1894      0.43%     99.33% # Writes before turning the bus around for reads
system.mem_ctrls.wrPerTurnAround::36-39          1391      0.31%     99.64% # Writes before turning the bus around for reads
system.mem_ctrls.wrPerTurnAround::40-43           502      0.11%     99.75% # Writes before turning the bus around for reads
system.mem_ctrls.wrPerTurnAround::44-47           162      0.04%     99.79% # Writes before turning the bus around for reads
system.mem_ctrls.wrPerTurnAround::48-51           156      0.04%     99.82% # Writes before turning the bus around for reads
system.mem_ctrls.wrPerTurnAround::52-55           104      0.02%     99.85% # Writes before turning the bus around for reads
system.mem_ctrls.wrPerTurnAround::56-59            81      0.02%     99.87% # Writes before turning the bus around for reads
system.mem_ctrls.wrPerTurnAround::60-63            69      0.02%     99.88% # Writes before turning the bus around for reads
system.mem_ctrls.wrPerTurnAround::64-67           221      0.05%     99.93% # Writes before turning the bus around for reads
system.mem_ctrls.wrPerTurnAround::68-71            65      0.01%     99.95% # Writes before turning the bus around for reads
system.mem_ctrls.wrPerTurnAround::72-75            47      0.01%     99.96% # Writes before turning the bus around for reads
system.mem_ctrls.wrPerTurnAround::76-79            40      0.01%     99.97% # Writes before turning the bus around for reads
system.mem_ctrls.wrPerTurnAround::80-83            33      0.01%     99.97% # Writes before turning the bus around for reads
system.mem_ctrls.wrPerTurnAround::84-87            14      0.00%     99.98% # Writes before turning the bus around for reads
system.mem_ctrls.wrPerTurnAround::88-91            17      0.00%     99.98% # Writes before turning the bus around for reads
system.mem_ctrls.wrPerTurnAround::92-95            11      0.00%     99.98% # Writes before turning the bus around for reads
system.mem_ctrls.wrPerTurnAround::96-99            15      0.00%     99.99% # Writes before turning the bus around for reads
system.mem_ctrls.wrPerTurnAround::100-103            8      0.00%     99.99% # Writes before turning the bus around for reads
system.mem_ctrls.wrPerTurnAround::104-107           11      0.00%     99.99% # Writes before turning the bus around for reads
system.mem_ctrls.wrPerTurnAround::108-111           13      0.00%     99.99% # Writes before turning the bus around for reads
system.mem_ctrls.wrPerTurnAround::112-115            7      0.00%     99.99% # Writes before turning the bus around for reads
system.mem_ctrls.wrPerTurnAround::116-119            6      0.00%    100.00% # Writes before turning the bus around for reads
system.mem_ctrls.wrPerTurnAround::120-123            3      0.00%    100.00% # Writes before turning the bus around for reads
system.mem_ctrls.wrPerTurnAround::124-127            3      0.00%    100.00% # Writes before turning the bus around for reads
system.mem_ctrls.wrPerTurnAround::128-131            5      0.00%    100.00% # Writes before turning the bus around for reads
system.mem_ctrls.wrPerTurnAround::132-135            1      0.00%    100.00% # Writes before turning the bus around for reads
system.mem_ctrls.wrPerTurnAround::144-147            2      0.00%    100.00% # Writes before turning the bus around for reads
system.mem_ctrls.wrPerTurnAround::152-155            1      0.00%    100.00% # Writes before turning the bus around for reads
system.mem_ctrls.wrPerTurnAround::164-167            1      0.00%    100.00% # Writes before turning the bus around for reads
system.mem_ctrls.wrPerTurnAround::176-179            1      0.00%    100.00% # Writes before turning the bus around for reads
system.mem_ctrls.wrPerTurnAround::200-203            1      0.00%    100.00% # Writes before turning the bus around for reads
system.mem_ctrls.wrPerTurnAround::208-211            1      0.00%    100.00% # Writes before turning the bus around for reads
system.mem_ctrls.wrPerTurnAround::total        445515                       # Writes before turning the bus around for reads
system.mem_ctrls.totQLat                 598677443230                       # Total ticks spent queuing
system.mem_ctrls.totMemAccLat            882297180730                       # Total ticks spent from burst creation until serviced by the DRAM
system.mem_ctrls.totBusLat                75631930000                       # Total ticks spent in databus transfers
system.mem_ctrls.avgQLat                     39578.35                       # Average queueing delay per DRAM burst
system.mem_ctrls.avgBusLat                    5000.00                       # Average bus latency per DRAM burst
system.mem_ctrls.avgMemAccLat                58328.35                       # Average memory access latency per DRAM burst
system.mem_ctrls.avgRdBW                         0.82                       # Average DRAM read bandwidth in MiByte/s
system.mem_ctrls.avgWrBW                         0.42                       # Average achieved write bandwidth in MiByte/s
system.mem_ctrls.avgRdBWSys                      0.83                       # Average system read bandwidth in MiByte/s
system.mem_ctrls.avgWrBWSys                      0.42                       # Average system write bandwidth in MiByte/s
system.mem_ctrls.peakBW                      12800.00                       # Theoretical peak bandwidth in MiByte/s
system.mem_ctrls.busUtil                         0.01                       # Data bus utilization in percentage
system.mem_ctrls.busUtilRead                     0.01                       # Data bus utilization in percentage for reads
system.mem_ctrls.busUtilWrite                    0.00                       # Data bus utilization in percentage for writes
system.mem_ctrls.avgRdQLen                       1.02                       # Average read queue length when enqueuing
system.mem_ctrls.avgWrQLen                      23.12                       # Average write queue length when enqueuing
system.mem_ctrls.readRowHits                 11754147                       # Number of row buffer hits during reads
system.mem_ctrls.writeRowHits                 4608545                       # Number of row buffer hits during writes
system.mem_ctrls.readRowHitRate                 77.71                       # Row buffer hit rate for reads
system.mem_ctrls.writeRowHitRate                59.84                       # Row buffer hit rate for writes
system.mem_ctrls.avgGap                   51449697.90                       # Average gap between requests
system.mem_ctrls.pageHitRate                    71.68                       # Row buffer hit rate, read and write combined
system.mem_ctrls_0.actEnergy              21468309240                       # Energy for activate commands per rank (pJ)
system.mem_ctrls_0.preEnergy              11410650405                       # Energy for precharge commands per rank (pJ)
system.mem_ctrls_0.readEnergy             50769833940                       # Energy for read commands per rank (pJ)
system.mem_ctrls_0.writeEnergy            18826269300                       # Energy for write commands per rank (pJ)
system.mem_ctrls_0.refreshEnergy         218077345200.000031                       # Energy for refresh commands per rank (pJ)
system.mem_ctrls_0.actBackEnergy         254637235440                       # Energy for active background per rank (pJ)
system.mem_ctrls_0.preBackEnergy           9214507680                       # Energy for precharge background per rank (pJ)
system.mem_ctrls_0.actPowerDownEnergy    612744030390                       # Energy for active power-down per rank (pJ)
system.mem_ctrls_0.prePowerDownEnergy    216003965280                       # Energy for precharge power-down per rank (pJ)
system.mem_ctrls_0.selfRefreshEnergy     281869725294000                       # Energy for self refresh per rank (pJ)
system.mem_ctrls_0.totalEnergy           283282940097795                       # Total energy per rank (pJ)
system.mem_ctrls_0.averagePower            240.711039                       # Core power per rank (mW)
system.mem_ctrls_0.totalIdleTime         1176276397314133                       # Total Idle time Per DRAM Rank
system.mem_ctrls_0.memoryStateTime::IDLE  13304439250                       # Time in different power states
system.mem_ctrls_0.memoryStateTime::REF   92482772000                       # Time in different power states
system.mem_ctrls_0.memoryStateTime::SREF 1174370151847500                       # Time in different power states
system.mem_ctrls_0.memoryStateTime::PRE_PDN 562511226073                       # Time in different power states
system.mem_ctrls_0.memoryStateTime::ACT  476764842867                       # Time in different power states
system.mem_ctrls_0.memoryStateTime::ACT_PDN 1343734670810                       # Time in different power states
system.mem_ctrls_1.actEnergy              24697081500                       # Energy for activate commands per rank (pJ)
system.mem_ctrls_1.preEnergy              13126794945                       # Energy for precharge commands per rank (pJ)
system.mem_ctrls_1.readEnergy             57232562100                       # Energy for read commands per rank (pJ)
system.mem_ctrls_1.writeEnergy            21378416040                       # Energy for write commands per rank (pJ)
system.mem_ctrls_1.refreshEnergy         218857938000.000031                       # Energy for refresh commands per rank (pJ)
system.mem_ctrls_1.actBackEnergy         258428474730                       # Energy for active background per rank (pJ)
system.mem_ctrls_1.preBackEnergy           8774996160                       # Energy for precharge background per rank (pJ)
system.mem_ctrls_1.actPowerDownEnergy    644906031870                       # Energy for active power-down per rank (pJ)
system.mem_ctrls_1.prePowerDownEnergy    197634767040                       # Energy for precharge power-down per rank (pJ)
system.mem_ctrls_1.selfRefreshEnergy     281861038767060                       # Energy for self refresh per rank (pJ)
system.mem_ctrls_1.totalEnergy           283306125258255                       # Total energy per rank (pJ)
system.mem_ctrls_1.averagePower            240.730739                       # Core power per rank (mW)
system.mem_ctrls_1.totalIdleTime         1176269256907606                       # Total Idle time Per DRAM Rank
system.mem_ctrls_1.memoryStateTime::IDLE  12011680499                       # Time in different power states
system.mem_ctrls_1.memoryStateTime::REF   92796490000                       # Time in different power states
system.mem_ctrls_1.memoryStateTime::SREF 1174340317330500                       # Time in different power states
system.mem_ctrls_1.memoryStateTime::PRE_PDN 514673897262                       # Time in different power states
system.mem_ctrls_1.memoryStateTime::ACT  484884687145                       # Time in different power states
system.mem_ctrls_1.memoryStateTime::ACT_PDN 1414265713094                       # Time in different power states
system.pwrStateResidencyTicks::UNDEFINED 1176858949798500                       # Cumulative time (in ticks) in various power states
system.cf0.dma_read_full_pages                   2162                       # Number of full page size DMA reads (not PRD).
system.cf0.dma_read_bytes                     8855552                       # Number of bytes transfered via DMA reads (not PRD).
system.cf0.dma_read_txs                          2162                       # Number of DMA read transactions (not PRD).
system.cf0.dma_write_full_pages                  7273                       # Number of full page size DMA writes.
system.cf0.dma_write_bytes                   29792768                       # Number of bytes transfered via DMA writes.
system.cf0.dma_write_txs                         7276                       # Number of DMA write transactions.
system.cpu.branchPred.lookups              1366480091                       # Number of BP lookups
system.cpu.branchPred.condPredicted        1098517064                       # Number of conditional branches predicted
system.cpu.branchPred.condIncorrect          77713672                       # Number of conditional branches incorrect
system.cpu.branchPred.BTBLookups            854389225                       # Number of BTB lookups
system.cpu.branchPred.BTBHits               629746801                       # Number of BTB hits
system.cpu.branchPred.BTBCorrect                    0                       # Number of correct BTB predictions (this stat may not work properly.
system.cpu.branchPred.BTBHitPct             73.707250                       # BTB Hit Percentage
system.cpu.branchPred.usedRAS                76590159                       # Number of times the RAS was used to get a target.
system.cpu.branchPred.RASInCorrect             303787                       # Number of incorrect RAS predictions.
system.cpu.branchPred.indirectLookups        21802965                       # Number of indirect predictor lookups.
system.cpu.branchPred.indirectHits           16742903                       # Number of indirect target hits.
system.cpu.branchPred.indirectMisses          5060062                       # Number of indirect misses.
system.cpu.branchPredindirectMispredicted      1906567                       # Number of mispredicted indirect branches.
system.cpu_voltage_domain.voltage                   1                       # Voltage in Volts
system.cpu_clk_domain.clock                       500                       # Clock period in ticks
system.cpu.dstage2_mmu.stage2_tlb.walker.pwrStateResidencyTicks::UNDEFINED 1176858949798500                       # Cumulative time (in ticks) in various power states
system.cpu.dstage2_mmu.stage2_tlb.walker.walks            0                       # Table walker walks requested
system.cpu.dstage2_mmu.stage2_tlb.walker.walkRequestOrigin_Requested::Data            0                       # Table walker requests started/completed, data/inst
system.cpu.dstage2_mmu.stage2_tlb.walker.walkRequestOrigin_Requested::Inst            0                       # Table walker requests started/completed, data/inst
system.cpu.dstage2_mmu.stage2_tlb.walker.walkRequestOrigin_Requested::total            0                       # Table walker requests started/completed, data/inst
system.cpu.dstage2_mmu.stage2_tlb.walker.walkRequestOrigin_Completed::Data            0                       # Table walker requests started/completed, data/inst
system.cpu.dstage2_mmu.stage2_tlb.walker.walkRequestOrigin_Completed::Inst            0                       # Table walker requests started/completed, data/inst
system.cpu.dstage2_mmu.stage2_tlb.walker.walkRequestOrigin_Completed::total            0                       # Table walker requests started/completed, data/inst
system.cpu.dstage2_mmu.stage2_tlb.walker.walkRequestOrigin::total            0                       # Table walker requests started/completed, data/inst
system.cpu.dstage2_mmu.stage2_tlb.inst_hits            0                       # ITB inst hits
system.cpu.dstage2_mmu.stage2_tlb.inst_misses            0                       # ITB inst misses
system.cpu.dstage2_mmu.stage2_tlb.read_hits            0                       # DTB read hits
system.cpu.dstage2_mmu.stage2_tlb.read_misses            0                       # DTB read misses
system.cpu.dstage2_mmu.stage2_tlb.write_hits            0                       # DTB write hits
system.cpu.dstage2_mmu.stage2_tlb.write_misses            0                       # DTB write misses
system.cpu.dstage2_mmu.stage2_tlb.flush_tlb            0                       # Number of times complete TLB was flushed
system.cpu.dstage2_mmu.stage2_tlb.flush_tlb_mva            0                       # Number of times TLB was flushed by MVA
system.cpu.dstage2_mmu.stage2_tlb.flush_tlb_mva_asid            0                       # Number of times TLB was flushed by MVA & ASID
system.cpu.dstage2_mmu.stage2_tlb.flush_tlb_asid            0                       # Number of times TLB was flushed by ASID
system.cpu.dstage2_mmu.stage2_tlb.flush_entries            0                       # Number of entries that have been flushed from TLB
system.cpu.dstage2_mmu.stage2_tlb.align_faults            0                       # Number of TLB faults due to alignment restrictions
system.cpu.dstage2_mmu.stage2_tlb.prefetch_faults            0                       # Number of TLB faults due to prefetch
system.cpu.dstage2_mmu.stage2_tlb.domain_faults            0                       # Number of TLB faults due to domain restrictions
system.cpu.dstage2_mmu.stage2_tlb.perms_faults            0                       # Number of TLB faults due to permissions restrictions
system.cpu.dstage2_mmu.stage2_tlb.read_accesses            0                       # DTB read accesses
system.cpu.dstage2_mmu.stage2_tlb.write_accesses            0                       # DTB write accesses
system.cpu.dstage2_mmu.stage2_tlb.inst_accesses            0                       # ITB inst accesses
system.cpu.dstage2_mmu.stage2_tlb.hits              0                       # DTB hits
system.cpu.dstage2_mmu.stage2_tlb.misses            0                       # DTB misses
system.cpu.dstage2_mmu.stage2_tlb.accesses            0                       # DTB accesses
system.cpu.dtb.walker.pwrStateResidencyTicks::UNDEFINED 1176858949798500                       # Cumulative time (in ticks) in various power states
system.cpu.dtb.walker.walks                   9821244                       # Table walker walks requested
system.cpu.dtb.walker.walksLong               9821244                       # Table walker walks initiated with long descriptors
system.cpu.dtb.walker.walksLongTerminationLevel::Level2        51175                       # Level at which table walker walks with long descriptors terminate
system.cpu.dtb.walker.walksLongTerminationLevel::Level3      1372256                       # Level at which table walker walks with long descriptors terminate
system.cpu.dtb.walker.walksSquashedBefore      1323650                       # Table walks squashed before starting
system.cpu.dtb.walker.walkWaitTime::samples      8497594                       # Table walker wait (enqueue to first request) latency
system.cpu.dtb.walker.walkWaitTime::mean   310.728307                       # Table walker wait (enqueue to first request) latency
system.cpu.dtb.walker.walkWaitTime::stdev  4489.497170                       # Table walker wait (enqueue to first request) latency
system.cpu.dtb.walker.walkWaitTime::0-65535      8489677     99.91%     99.91% # Table walker wait (enqueue to first request) latency
system.cpu.dtb.walker.walkWaitTime::65536-131071         6315      0.07%     99.98% # Table walker wait (enqueue to first request) latency
system.cpu.dtb.walker.walkWaitTime::131072-196607         1059      0.01%     99.99% # Table walker wait (enqueue to first request) latency
system.cpu.dtb.walker.walkWaitTime::196608-262143          257      0.00%    100.00% # Table walker wait (enqueue to first request) latency
system.cpu.dtb.walker.walkWaitTime::262144-327679          114      0.00%    100.00% # Table walker wait (enqueue to first request) latency
system.cpu.dtb.walker.walkWaitTime::327680-393215           51      0.00%    100.00% # Table walker wait (enqueue to first request) latency
system.cpu.dtb.walker.walkWaitTime::393216-458751           14      0.00%    100.00% # Table walker wait (enqueue to first request) latency
system.cpu.dtb.walker.walkWaitTime::458752-524287           11      0.00%    100.00% # Table walker wait (enqueue to first request) latency
system.cpu.dtb.walker.walkWaitTime::524288-589823           15      0.00%    100.00% # Table walker wait (enqueue to first request) latency
system.cpu.dtb.walker.walkWaitTime::589824-655359           79      0.00%    100.00% # Table walker wait (enqueue to first request) latency
system.cpu.dtb.walker.walkWaitTime::655360-720895            1      0.00%    100.00% # Table walker wait (enqueue to first request) latency
system.cpu.dtb.walker.walkWaitTime::786432-851967            1      0.00%    100.00% # Table walker wait (enqueue to first request) latency
system.cpu.dtb.walker.walkWaitTime::total      8497594                       # Table walker wait (enqueue to first request) latency
system.cpu.dtb.walker.walkCompletionTime::samples      2572185                       # Table walker service (enqueue to completion) latency
system.cpu.dtb.walker.walkCompletionTime::mean 11489.032255                       # Table walker service (enqueue to completion) latency
system.cpu.dtb.walker.walkCompletionTime::gmean  6385.048945                       # Table walker service (enqueue to completion) latency
system.cpu.dtb.walker.walkCompletionTime::stdev 28363.956462                       # Table walker service (enqueue to completion) latency
system.cpu.dtb.walker.walkCompletionTime::0-131071      2555428     99.35%     99.35% # Table walker service (enqueue to completion) latency
system.cpu.dtb.walker.walkCompletionTime::131072-262143        11691      0.45%     99.80% # Table walker service (enqueue to completion) latency
system.cpu.dtb.walker.walkCompletionTime::262144-393215         2285      0.09%     99.89% # Table walker service (enqueue to completion) latency
system.cpu.dtb.walker.walkCompletionTime::393216-524287          327      0.01%     99.90% # Table walker service (enqueue to completion) latency
system.cpu.dtb.walker.walkCompletionTime::524288-655359         2378      0.09%    100.00% # Table walker service (enqueue to completion) latency
system.cpu.dtb.walker.walkCompletionTime::655360-786431           63      0.00%    100.00% # Table walker service (enqueue to completion) latency
system.cpu.dtb.walker.walkCompletionTime::786432-917503           11      0.00%    100.00% # Table walker service (enqueue to completion) latency
system.cpu.dtb.walker.walkCompletionTime::1.17965e+06-1.31072e+06            2      0.00%    100.00% # Table walker service (enqueue to completion) latency
system.cpu.dtb.walker.walkCompletionTime::total      2572185                       # Table walker service (enqueue to completion) latency
system.cpu.dtb.walker.walksPending::samples 4942744987032                       # Table walker pending requests distribution
system.cpu.dtb.walker.walksPending::mean     0.795614                       # Table walker pending requests distribution
system.cpu.dtb.walker.walksPending::stdev     0.422661                       # Table walker pending requests distribution
system.cpu.dtb.walker.walksPending::0-1  4939116302532     99.93%     99.93% # Table walker pending requests distribution
system.cpu.dtb.walker.walksPending::2-3    2127157500      0.04%     99.97% # Table walker pending requests distribution
system.cpu.dtb.walker.walksPending::4-5     663911000      0.01%     99.98% # Table walker pending requests distribution
system.cpu.dtb.walker.walksPending::6-7     257015000      0.01%     99.99% # Table walker pending requests distribution
system.cpu.dtb.walker.walksPending::8-9     436552000      0.01%    100.00% # Table walker pending requests distribution
system.cpu.dtb.walker.walksPending::10-11     53910000      0.00%    100.00% # Table walker pending requests distribution
system.cpu.dtb.walker.walksPending::12-13     26399500      0.00%    100.00% # Table walker pending requests distribution
system.cpu.dtb.walker.walksPending::14-15     62384500      0.00%    100.00% # Table walker pending requests distribution
system.cpu.dtb.walker.walksPending::16-17      1055000      0.00%    100.00% # Table walker pending requests distribution
system.cpu.dtb.walker.walksPending::18-19       169500      0.00%    100.00% # Table walker pending requests distribution
system.cpu.dtb.walker.walksPending::20-21         2500      0.00%    100.00% # Table walker pending requests distribution
system.cpu.dtb.walker.walksPending::22-23         2000      0.00%    100.00% # Table walker pending requests distribution
system.cpu.dtb.walker.walksPending::24-25       126000      0.00%    100.00% # Table walker pending requests distribution
system.cpu.dtb.walker.walksPending::total 4942744987032                       # Table walker pending requests distribution
system.cpu.dtb.walker.walkPageSizes::4K       1372256     96.40%     96.40% # Table walker page sizes translated
system.cpu.dtb.walker.walkPageSizes::2M         51175      3.60%    100.00% # Table walker page sizes translated
system.cpu.dtb.walker.walkPageSizes::total      1423431                       # Table walker page sizes translated
system.cpu.dtb.walker.walkRequestOrigin_Requested::Data      9821244                       # Table walker requests started/completed, data/inst
system.cpu.dtb.walker.walkRequestOrigin_Requested::Inst            0                       # Table walker requests started/completed, data/inst
system.cpu.dtb.walker.walkRequestOrigin_Requested::total      9821244                       # Table walker requests started/completed, data/inst
system.cpu.dtb.walker.walkRequestOrigin_Completed::Data      1423431                       # Table walker requests started/completed, data/inst
system.cpu.dtb.walker.walkRequestOrigin_Completed::Inst            0                       # Table walker requests started/completed, data/inst
system.cpu.dtb.walker.walkRequestOrigin_Completed::total      1423431                       # Table walker requests started/completed, data/inst
system.cpu.dtb.walker.walkRequestOrigin::total     11244675                       # Table walker requests started/completed, data/inst
system.cpu.dtb.inst_hits                            0                       # ITB inst hits
system.cpu.dtb.inst_misses                          0                       # ITB inst misses
system.cpu.dtb.read_hits                   1715638344                       # DTB read hits
system.cpu.dtb.read_misses                    8886713                       # DTB read misses
system.cpu.dtb.write_hits                   590057151                       # DTB write hits
system.cpu.dtb.write_misses                    934531                       # DTB write misses
system.cpu.dtb.flush_tlb                           13                       # Number of times complete TLB was flushed
system.cpu.dtb.flush_tlb_mva                        6                       # Number of times TLB was flushed by MVA
system.cpu.dtb.flush_tlb_mva_asid              114727                       # Number of times TLB was flushed by MVA & ASID
system.cpu.dtb.flush_tlb_asid                     709                       # Number of times TLB was flushed by ASID
system.cpu.dtb.flush_entries                    92374                       # Number of entries that have been flushed from TLB
system.cpu.dtb.align_faults                      1079                       # Number of TLB faults due to alignment restrictions
system.cpu.dtb.prefetch_faults                  29676                       # Number of TLB faults due to prefetch
system.cpu.dtb.domain_faults                        0                       # Number of TLB faults due to domain restrictions
system.cpu.dtb.perms_faults                    182791                       # Number of TLB faults due to permissions restrictions
system.cpu.dtb.read_accesses               1724525057                       # DTB read accesses
system.cpu.dtb.write_accesses               590991682                       # DTB write accesses
system.cpu.dtb.inst_accesses                        0                       # ITB inst accesses
system.cpu.dtb.hits                        2305695495                       # DTB hits
system.cpu.dtb.misses                         9821244                       # DTB misses
system.cpu.dtb.accesses                    2315516739                       # DTB accesses
system.cpu.istage2_mmu.stage2_tlb.walker.pwrStateResidencyTicks::UNDEFINED 1176858949798500                       # Cumulative time (in ticks) in various power states
system.cpu.istage2_mmu.stage2_tlb.walker.walks            0                       # Table walker walks requested
system.cpu.istage2_mmu.stage2_tlb.walker.walkRequestOrigin_Requested::Data            0                       # Table walker requests started/completed, data/inst
system.cpu.istage2_mmu.stage2_tlb.walker.walkRequestOrigin_Requested::Inst            0                       # Table walker requests started/completed, data/inst
system.cpu.istage2_mmu.stage2_tlb.walker.walkRequestOrigin_Requested::total            0                       # Table walker requests started/completed, data/inst
system.cpu.istage2_mmu.stage2_tlb.walker.walkRequestOrigin_Completed::Data            0                       # Table walker requests started/completed, data/inst
system.cpu.istage2_mmu.stage2_tlb.walker.walkRequestOrigin_Completed::Inst            0                       # Table walker requests started/completed, data/inst
system.cpu.istage2_mmu.stage2_tlb.walker.walkRequestOrigin_Completed::total            0                       # Table walker requests started/completed, data/inst
system.cpu.istage2_mmu.stage2_tlb.walker.walkRequestOrigin::total            0                       # Table walker requests started/completed, data/inst
system.cpu.istage2_mmu.stage2_tlb.inst_hits            0                       # ITB inst hits
system.cpu.istage2_mmu.stage2_tlb.inst_misses            0                       # ITB inst misses
system.cpu.istage2_mmu.stage2_tlb.read_hits            0                       # DTB read hits
system.cpu.istage2_mmu.stage2_tlb.read_misses            0                       # DTB read misses
system.cpu.istage2_mmu.stage2_tlb.write_hits            0                       # DTB write hits
system.cpu.istage2_mmu.stage2_tlb.write_misses            0                       # DTB write misses
system.cpu.istage2_mmu.stage2_tlb.flush_tlb            0                       # Number of times complete TLB was flushed
system.cpu.istage2_mmu.stage2_tlb.flush_tlb_mva            0                       # Number of times TLB was flushed by MVA
system.cpu.istage2_mmu.stage2_tlb.flush_tlb_mva_asid            0                       # Number of times TLB was flushed by MVA & ASID
system.cpu.istage2_mmu.stage2_tlb.flush_tlb_asid            0                       # Number of times TLB was flushed by ASID
system.cpu.istage2_mmu.stage2_tlb.flush_entries            0                       # Number of entries that have been flushed from TLB
system.cpu.istage2_mmu.stage2_tlb.align_faults            0                       # Number of TLB faults due to alignment restrictions
system.cpu.istage2_mmu.stage2_tlb.prefetch_faults            0                       # Number of TLB faults due to prefetch
system.cpu.istage2_mmu.stage2_tlb.domain_faults            0                       # Number of TLB faults due to domain restrictions
system.cpu.istage2_mmu.stage2_tlb.perms_faults            0                       # Number of TLB faults due to permissions restrictions
system.cpu.istage2_mmu.stage2_tlb.read_accesses            0                       # DTB read accesses
system.cpu.istage2_mmu.stage2_tlb.write_accesses            0                       # DTB write accesses
system.cpu.istage2_mmu.stage2_tlb.inst_accesses            0                       # ITB inst accesses
system.cpu.istage2_mmu.stage2_tlb.hits              0                       # DTB hits
system.cpu.istage2_mmu.stage2_tlb.misses            0                       # DTB misses
system.cpu.istage2_mmu.stage2_tlb.accesses            0                       # DTB accesses
system.cpu.itb.walker.pwrStateResidencyTicks::UNDEFINED 1176858949798500                       # Cumulative time (in ticks) in various power states
system.cpu.itb.walker.walks                    400266                       # Table walker walks requested
system.cpu.itb.walker.walksLong                400266                       # Table walker walks initiated with long descriptors
system.cpu.itb.walker.walksLongTerminationLevel::Level2         5975                       # Level at which table walker walks with long descriptors terminate
system.cpu.itb.walker.walksLongTerminationLevel::Level3       284442                       # Level at which table walker walks with long descriptors terminate
system.cpu.itb.walker.walksSquashedBefore        27711                       # Table walks squashed before starting
system.cpu.itb.walker.walkWaitTime::samples       372555                       # Table walker wait (enqueue to first request) latency
system.cpu.itb.walker.walkWaitTime::mean   414.403242                       # Table walker wait (enqueue to first request) latency
system.cpu.itb.walker.walkWaitTime::stdev  5920.854863                       # Table walker wait (enqueue to first request) latency
system.cpu.itb.walker.walkWaitTime::0-65535       371982     99.85%     99.85% # Table walker wait (enqueue to first request) latency
system.cpu.itb.walker.walkWaitTime::65536-131071          451      0.12%     99.97% # Table walker wait (enqueue to first request) latency
system.cpu.itb.walker.walkWaitTime::131072-196607           63      0.02%     99.98% # Table walker wait (enqueue to first request) latency
system.cpu.itb.walker.walkWaitTime::196608-262143           27      0.01%     99.99% # Table walker wait (enqueue to first request) latency
system.cpu.itb.walker.walkWaitTime::262144-327679           23      0.01%    100.00% # Table walker wait (enqueue to first request) latency
system.cpu.itb.walker.walkWaitTime::327680-393215            4      0.00%    100.00% # Table walker wait (enqueue to first request) latency
system.cpu.itb.walker.walkWaitTime::458752-524287            2      0.00%    100.00% # Table walker wait (enqueue to first request) latency
system.cpu.itb.walker.walkWaitTime::524288-589823            1      0.00%    100.00% # Table walker wait (enqueue to first request) latency
system.cpu.itb.walker.walkWaitTime::589824-655359            2      0.00%    100.00% # Table walker wait (enqueue to first request) latency
system.cpu.itb.walker.walkWaitTime::total       372555                       # Table walker wait (enqueue to first request) latency
system.cpu.itb.walker.walkCompletionTime::samples       318128                       # Table walker service (enqueue to completion) latency
system.cpu.itb.walker.walkCompletionTime::mean 11776.234462                       # Table walker service (enqueue to completion) latency
system.cpu.itb.walker.walkCompletionTime::gmean  6335.712545                       # Table walker service (enqueue to completion) latency
system.cpu.itb.walker.walkCompletionTime::stdev 25970.010086                       # Table walker service (enqueue to completion) latency
system.cpu.itb.walker.walkCompletionTime::0-65535       302916     95.22%     95.22% # Table walker service (enqueue to completion) latency
system.cpu.itb.walker.walkCompletionTime::65536-131071        13152      4.13%     99.35% # Table walker service (enqueue to completion) latency
system.cpu.itb.walker.walkCompletionTime::131072-196607         1250      0.39%     99.75% # Table walker service (enqueue to completion) latency
system.cpu.itb.walker.walkCompletionTime::196608-262143          342      0.11%     99.85% # Table walker service (enqueue to completion) latency
system.cpu.itb.walker.walkCompletionTime::262144-327679          213      0.07%     99.92% # Table walker service (enqueue to completion) latency
system.cpu.itb.walker.walkCompletionTime::327680-393215          124      0.04%     99.96% # Table walker service (enqueue to completion) latency
system.cpu.itb.walker.walkCompletionTime::393216-458751           40      0.01%     99.97% # Table walker service (enqueue to completion) latency
system.cpu.itb.walker.walkCompletionTime::458752-524287            5      0.00%     99.97% # Table walker service (enqueue to completion) latency
system.cpu.itb.walker.walkCompletionTime::524288-589823           11      0.00%     99.98% # Table walker service (enqueue to completion) latency
system.cpu.itb.walker.walkCompletionTime::589824-655359           75      0.02%    100.00% # Table walker service (enqueue to completion) latency
system.cpu.itb.walker.walkCompletionTime::total       318128                       # Table walker service (enqueue to completion) latency
system.cpu.itb.walker.walksPending::samples 1304924876820                       # Table walker pending requests distribution
system.cpu.itb.walker.walksPending::mean     0.957946                       # Table walker pending requests distribution
system.cpu.itb.walker.walksPending::stdev     0.201030                       # Table walker pending requests distribution
system.cpu.itb.walker.walksPending::0     54959415724      4.21%      4.21% # Table walker pending requests distribution
system.cpu.itb.walker.walksPending::1    1249884955096     95.78%     99.99% # Table walker pending requests distribution
system.cpu.itb.walker.walksPending::2        79526500      0.01%    100.00% # Table walker pending requests distribution
system.cpu.itb.walker.walksPending::3          797500      0.00%    100.00% # Table walker pending requests distribution
system.cpu.itb.walker.walksPending::4          182000      0.00%    100.00% # Table walker pending requests distribution
system.cpu.itb.walker.walksPending::total 1304924876820                       # Table walker pending requests distribution
system.cpu.itb.walker.walkPageSizes::4K        284442     97.94%     97.94% # Table walker page sizes translated
system.cpu.itb.walker.walkPageSizes::2M          5975      2.06%    100.00% # Table walker page sizes translated
system.cpu.itb.walker.walkPageSizes::total       290417                       # Table walker page sizes translated
system.cpu.itb.walker.walkRequestOrigin_Requested::Data            0                       # Table walker requests started/completed, data/inst
system.cpu.itb.walker.walkRequestOrigin_Requested::Inst       400266                       # Table walker requests started/completed, data/inst
system.cpu.itb.walker.walkRequestOrigin_Requested::total       400266                       # Table walker requests started/completed, data/inst
system.cpu.itb.walker.walkRequestOrigin_Completed::Data            0                       # Table walker requests started/completed, data/inst
system.cpu.itb.walker.walkRequestOrigin_Completed::Inst       290417                       # Table walker requests started/completed, data/inst
system.cpu.itb.walker.walkRequestOrigin_Completed::total       290417                       # Table walker requests started/completed, data/inst
system.cpu.itb.walker.walkRequestOrigin::total       690683                       # Table walker requests started/completed, data/inst
system.cpu.itb.inst_hits                   2744235687                       # ITB inst hits
system.cpu.itb.inst_misses                     400266                       # ITB inst misses
system.cpu.itb.read_hits                            0                       # DTB read hits
system.cpu.itb.read_misses                          0                       # DTB read misses
system.cpu.itb.write_hits                           0                       # DTB write hits
system.cpu.itb.write_misses                         0                       # DTB write misses
system.cpu.itb.flush_tlb                           13                       # Number of times complete TLB was flushed
system.cpu.itb.flush_tlb_mva                        6                       # Number of times TLB was flushed by MVA
system.cpu.itb.flush_tlb_mva_asid              114727                       # Number of times TLB was flushed by MVA & ASID
system.cpu.itb.flush_tlb_asid                     709                       # Number of times TLB was flushed by ASID
system.cpu.itb.flush_entries                    41519                       # Number of entries that have been flushed from TLB
system.cpu.itb.align_faults                         0                       # Number of TLB faults due to alignment restrictions
system.cpu.itb.prefetch_faults                      0                       # Number of TLB faults due to prefetch
system.cpu.itb.domain_faults                        0                       # Number of TLB faults due to domain restrictions
system.cpu.itb.perms_faults                    657744                       # Number of TLB faults due to permissions restrictions
system.cpu.itb.read_accesses                        0                       # DTB read accesses
system.cpu.itb.write_accesses                       0                       # DTB write accesses
system.cpu.itb.inst_accesses               2744635953                       # ITB inst accesses
system.cpu.itb.hits                        2744235687                       # DTB hits
system.cpu.itb.misses                          400266                       # DTB misses
system.cpu.itb.accesses                    2744635953                       # DTB accesses
system.cpu.numPwrStateTransitions               44392                       # Number of power state transitions
system.cpu.pwrStateClkGateDist::samples         22196                       # Distribution of time spent in the clock gated state
system.cpu.pwrStateClkGateDist::mean     52806567868.787170                       # Distribution of time spent in the clock gated state
system.cpu.pwrStateClkGateDist::stdev    214052598857.055664                       # Distribution of time spent in the clock gated state
system.cpu.pwrStateClkGateDist::underflows        20548     92.58%     92.58% # Distribution of time spent in the clock gated state
system.cpu.pwrStateClkGateDist::1000-5e+10          230      1.04%     93.61% # Distribution of time spent in the clock gated state
system.cpu.pwrStateClkGateDist::5e+10-1e+11           26      0.12%     93.73% # Distribution of time spent in the clock gated state
system.cpu.pwrStateClkGateDist::1e+11-1.5e+11           22      0.10%     93.83% # Distribution of time spent in the clock gated state
system.cpu.pwrStateClkGateDist::1.5e+11-2e+11           23      0.10%     93.93% # Distribution of time spent in the clock gated state
system.cpu.pwrStateClkGateDist::2e+11-2.5e+11           26      0.12%     94.05% # Distribution of time spent in the clock gated state
system.cpu.pwrStateClkGateDist::2.5e+11-3e+11           23      0.10%     94.15% # Distribution of time spent in the clock gated state
system.cpu.pwrStateClkGateDist::3e+11-3.5e+11           35      0.16%     94.31% # Distribution of time spent in the clock gated state
system.cpu.pwrStateClkGateDist::3.5e+11-4e+11           33      0.15%     94.46% # Distribution of time spent in the clock gated state
system.cpu.pwrStateClkGateDist::4e+11-4.5e+11           34      0.15%     94.61% # Distribution of time spent in the clock gated state
system.cpu.pwrStateClkGateDist::4.5e+11-5e+11           31      0.14%     94.75% # Distribution of time spent in the clock gated state
system.cpu.pwrStateClkGateDist::5e+11-5.5e+11           25      0.11%     94.86% # Distribution of time spent in the clock gated state
system.cpu.pwrStateClkGateDist::5.5e+11-6e+11           32      0.14%     95.01% # Distribution of time spent in the clock gated state
system.cpu.pwrStateClkGateDist::6e+11-6.5e+11           34      0.15%     95.16% # Distribution of time spent in the clock gated state
system.cpu.pwrStateClkGateDist::6.5e+11-7e+11           35      0.16%     95.32% # Distribution of time spent in the clock gated state
system.cpu.pwrStateClkGateDist::7e+11-7.5e+11           20      0.09%     95.41% # Distribution of time spent in the clock gated state
system.cpu.pwrStateClkGateDist::7.5e+11-8e+11           21      0.09%     95.50% # Distribution of time spent in the clock gated state
system.cpu.pwrStateClkGateDist::8e+11-8.5e+11           18      0.08%     95.58% # Distribution of time spent in the clock gated state
system.cpu.pwrStateClkGateDist::8.5e+11-9e+11           21      0.09%     95.68% # Distribution of time spent in the clock gated state
system.cpu.pwrStateClkGateDist::9e+11-9.5e+11           22      0.10%     95.78% # Distribution of time spent in the clock gated state
system.cpu.pwrStateClkGateDist::9.5e+11-1e+12          937      4.22%    100.00% # Distribution of time spent in the clock gated state
system.cpu.pwrStateClkGateDist::min_value          501                       # Distribution of time spent in the clock gated state
system.cpu.pwrStateClkGateDist::max_value 999974829392                       # Distribution of time spent in the clock gated state
system.cpu.pwrStateClkGateDist::total           22196                       # Distribution of time spent in the clock gated state
system.cpu.pwrStateResidencyTicks::ON    4764369382900                       # Cumulative time (in ticks) in various power states
system.cpu.pwrStateResidencyTicks::CLK_GATED 1172094580415600                       # Cumulative time (in ticks) in various power states
system.cpu.numCycles                       9528740173                       # number of cpu cycles simulated
system.cpu.numWorkItemsStarted                      0                       # number of work items this cpu started
system.cpu.numWorkItemsCompleted                    0                       # number of work items this cpu completed
system.cpu.fetch.icacheStallCycles         3351084980                       # Number of cycles fetch is stalled on an Icache miss
system.cpu.fetch.Insts                     8335518117                       # Number of instructions fetch has processed
system.cpu.fetch.Branches                  1366480091                       # Number of branches that fetch encountered
system.cpu.fetch.predictedBranches          723079863                       # Number of branches that fetch has predicted taken
system.cpu.fetch.Cycles                    5778315350                       # Number of cycles fetch has run and was not squashing or blocked
system.cpu.fetch.SquashCycles               157796986                       # Number of cycles fetch has spent squashing
system.cpu.fetch.TlbCycles                    4753227                       # Number of cycles fetch has spent waiting for tlb
system.cpu.fetch.MiscStallCycles              8038545                       # Number of cycles fetch has spent waiting on interrupts, or bad addresses, or out of MSHRs
system.cpu.fetch.PendingTrapStallCycles      15276863                       # Number of stall cycles due to pending traps
system.cpu.fetch.PendingQuiesceStallCycles      2591814                       # Number of stall cycles due to pending quiesce instructions
system.cpu.fetch.IcacheWaitRetryStallCycles     20169886                       # Number of stall cycles due to full MSHR
system.cpu.fetch.CacheLines                2743516146                       # Number of cache lines fetched
system.cpu.fetch.IcacheSquashes              37634396                       # Number of outstanding Icache misses that were squashed
system.cpu.fetch.ItlbSquashes                   74741                       # Number of outstanding ITLB misses that were squashed
system.cpu.fetch.rateDist::samples         9259129158                       # Number of instructions fetched each cycle (Total)
system.cpu.fetch.rateDist::mean              0.957477                       # Number of instructions fetched each cycle (Total)
system.cpu.fetch.rateDist::stdev             1.202668                       # Number of instructions fetched each cycle (Total)
system.cpu.fetch.rateDist::underflows               0      0.00%      0.00% # Number of instructions fetched each cycle (Total)
system.cpu.fetch.rateDist::0               4915930495     53.09%     53.09% # Number of instructions fetched each cycle (Total)
system.cpu.fetch.rateDist::1               1806543532     19.51%     72.60% # Number of instructions fetched each cycle (Total)
system.cpu.fetch.rateDist::2                551104619      5.95%     78.56% # Number of instructions fetched each cycle (Total)
system.cpu.fetch.rateDist::3               1985550512     21.44%    100.00% # Number of instructions fetched each cycle (Total)
system.cpu.fetch.rateDist::overflows                0      0.00%    100.00% # Number of instructions fetched each cycle (Total)
system.cpu.fetch.rateDist::min_value                0                       # Number of instructions fetched each cycle (Total)
system.cpu.fetch.rateDist::max_value                3                       # Number of instructions fetched each cycle (Total)
system.cpu.fetch.rateDist::total           9259129158                       # Number of instructions fetched each cycle (Total)
system.cpu.fetch.branchRate                  0.143406                       # Number of branch fetches per cycle
system.cpu.fetch.rate                        0.874777                       # Number of inst fetches per cycle
system.cpu.decode.IdleCycles               2665012692                       # Number of cycles decode is idle
system.cpu.decode.BlockedCycles            2820780041                       # Number of cycles decode is blocked
system.cpu.decode.RunCycles                3276261079                       # Number of cycles decode is running
system.cpu.decode.UnblockCycles             427903384                       # Number of cycles decode is unblocking
system.cpu.decode.SquashCycles               69171962                       # Number of cycles decode is squashing
system.cpu.decode.BranchResolved            592956982                       # Number of times decode resolved a branch
system.cpu.decode.BranchMispred               9871725                       # Number of times decode detected a branch misprediction
system.cpu.decode.DecodedInsts             8281449576                       # Number of instructions handled by decode
system.cpu.decode.SquashedInsts             185085090                       # Number of squashed instructions handled by decode
system.cpu.rename.SquashCycles               69171962                       # Number of cycles rename is squashing
system.cpu.rename.IdleCycles               3020206408                       # Number of cycles rename is idle
system.cpu.rename.BlockCycles              1550848964                       # Number of cycles rename is blocking
system.cpu.rename.serializeStallCycles      490285049                       # count of cycles rename stalled for serializing inst
system.cpu.rename.RunCycles                3269710019                       # Number of cycles rename is running
system.cpu.rename.UnblockCycles             858906756                       # Number of cycles rename is unblocking
system.cpu.rename.RenamedInsts             8097815134                       # Number of instructions processed by rename
system.cpu.rename.SquashedInsts              75067683                       # Number of squashed instructions processed by rename
system.cpu.rename.ROBFullEvents              47264189                       # Number of times rename has blocked due to ROB full
system.cpu.rename.IQFullEvents                6067805                       # Number of times rename has blocked due to IQ full
system.cpu.rename.LQFullEvents               13909004                       # Number of times rename has blocked due to LQ full
system.cpu.rename.SQFullEvents              363067324                       # Number of times rename has blocked due to SQ full
system.cpu.rename.FullRegisterEvents        185404958                       # Number of times there has been no free registers
system.cpu.rename.RenamedOperands          9115838407                       # Number of destination operands rename has renamed
system.cpu.rename.RenameLookups           16849450029                       # Number of register rename lookups that rename has made
system.cpu.rename.int_rename_lookups       8762750818                       # Number of integer rename lookups
system.cpu.rename.vec_rename_lookups       1752433549                       # Number of vector rename lookups
system.cpu.rename.CommittedMaps            8470102095                       # Number of HB maps that are committed
[...]
system.ruby.Directory_Controller.Data    |       20295    100.00%    100.00% |           0      0.00%    100.00%
system.ruby.Directory_Controller.Data::total        20295                      
system.ruby.Directory_Controller.I.GETX  |     4901997    100.00%    100.00% |           0      0.00%    100.00%
system.ruby.Directory_Controller.I.GETX::total      4901997                      
system.ruby.Directory_Controller.I.GETS  |     3250854    100.00%    100.00% |           9      0.00%    100.00%
system.ruby.Directory_Controller.I.GETS::total      3250863                      
system.ruby.Directory_Controller.I.Memory_Ack |     7249280    100.00%    100.00% |           0      0.00%    100.00%
system.ruby.Directory_Controller.I.Memory_Ack::total      7249280                      
system.ruby.Directory_Controller.I.DMA_READ |       10616    100.00%    100.00% |           0      0.00%    100.00%
system.ruby.Directory_Controller.I.DMA_READ::total        10616                      
system.ruby.Directory_Controller.I.DMA_WRITE |      438779    100.00%    100.00% |           0      0.00%    100.00%
system.ruby.Directory_Controller.I.DMA_WRITE::total       438779                      
system.ruby.Directory_Controller.S.GETX  |     2362831    100.00%    100.00% |           0      0.00%    100.00%
system.ruby.Directory_Controller.S.GETX::total      2362831                      
system.ruby.Directory_Controller.S.GETS  |     4645595    100.00%    100.00% |           0      0.00%    100.00%
system.ruby.Directory_Controller.S.GETS::total      4645595                      
system.ruby.Directory_Controller.S.DMA_READ |      127263    100.00%    100.00% |           0      0.00%    100.00%
system.ruby.Directory_Controller.S.DMA_READ::total       127263                      
system.ruby.Directory_Controller.S.DMA_WRITE |        6438    100.00%    100.00% |           0      0.00%    100.00%
system.ruby.Directory_Controller.S.DMA_WRITE::total         6438                      
system.ruby.Directory_Controller.M.PUTX  |     7236567    100.00%    100.00% |           0      0.00%    100.00%
system.ruby.Directory_Controller.M.PUTX::total      7236567                      
system.ruby.Directory_Controller.M.DMA_READ |        5987    100.00%    100.00% |           0      0.00%    100.00%
system.ruby.Directory_Controller.M.DMA_READ::total         5987                      
system.ruby.Directory_Controller.M.DMA_WRITE |       20295    100.00%    100.00% |           0      0.00%    100.00%
system.ruby.Directory_Controller.M.DMA_WRITE::total        20295                      
system.ruby.Directory_Controller.IS.GETX |           8    100.00%    100.00% |           0      0.00%    100.00%
system.ruby.Directory_Controller.IS.GETX::total            8                      
system.ruby.Directory_Controller.IS.Unblock |     3250853    100.00%    100.00% |           9      0.00%    100.00%
system.ruby.Directory_Controller.IS.Unblock::total      3250862                      
system.ruby.Directory_Controller.IS.Memory_Data |     3250854    100.00%    100.00% |           9      0.00%    100.00%
system.ruby.Directory_Controller.IS.Memory_Data::total      3250863                      
system.ruby.Directory_Controller.IS.Memory_Ack |         265    100.00%    100.00% |           0      0.00%    100.00%
system.ruby.Directory_Controller.IS.Memory_Ack::total          265                      
system.ruby.Directory_Controller.SS.GETX |           1    100.00%    100.00% |           0      0.00%    100.00%
system.ruby.Directory_Controller.SS.GETX::total            1                      
system.ruby.Directory_Controller.SS.Last_Unblock |     4645595    100.00%    100.00% |           0      0.00%    100.00%
system.ruby.Directory_Controller.SS.Last_Unblock::total      4645595                      
system.ruby.Directory_Controller.SS.Memory_Data |     4645595    100.00%    100.00% |           0      0.00%    100.00%
system.ruby.Directory_Controller.SS.Memory_Data::total      4645595                      
system.ruby.Directory_Controller.MM.Exclusive_Unblock |     7264828    100.00%    100.00% |           0      0.00%    100.00%
system.ruby.Directory_Controller.MM.Exclusive_Unblock::total      7264828                      
system.ruby.Directory_Controller.MM.Memory_Data |     7264828    100.00%    100.00% |           0      0.00%    100.00%
system.ruby.Directory_Controller.MM.Memory_Data::total      7264828                      
system.ruby.Directory_Controller.MM.Memory_Ack |         110    100.00%    100.00% |           0      0.00%    100.00%
system.ruby.Directory_Controller.MM.Memory_Ack::total          110                      
system.ruby.Directory_Controller.MI.Dirty_Writeback |     7236567    100.00%    100.00% |           0      0.00%    100.00%
system.ruby.Directory_Controller.MI.Dirty_Writeback::total      7236567                      
system.ruby.Directory_Controller.XI_M.Memory_Data |       10616    100.00%    100.00% |           0      0.00%    100.00%
system.ruby.Directory_Controller.XI_M.Memory_Data::total        10616                      
system.ruby.Directory_Controller.XI_U.Exclusive_Unblock |      465512    100.00%    100.00% |           0      0.00%    100.00%
system.ruby.Directory_Controller.XI_U.Exclusive_Unblock::total       465512                      
system.ruby.Directory_Controller.XI_U.Memory_Ack |      452424    100.00%    100.00% |           0      0.00%    100.00%
system.ruby.Directory_Controller.XI_U.Memory_Ack::total       452424                      
system.ruby.Directory_Controller.OI_D.Data |       20295    100.00%    100.00% |           0      0.00%    100.00%
system.ruby.Directory_Controller.OI_D.Data::total        20295                      
system.ruby.Directory_Controller.MD.DMA_ACK |        5987    100.00%    100.00% |           0      0.00%    100.00%
system.ruby.Directory_Controller.MD.DMA_ACK::total         5987                      
system.ruby.DMA_Controller.ReadRequest   |           0      0.00%      0.00% |     4263501    100.00%    100.00% |           0      0.00%    100.00%
system.ruby.DMA_Controller.ReadRequest::total      4263501                      
system.ruby.DMA_Controller.WriteRequest  |           0      0.00%      0.00% |    14324520    100.00%    100.00% |           0      0.00%    100.00%
system.ruby.DMA_Controller.WriteRequest::total     14324520                      
system.ruby.DMA_Controller.Data          |           0      0.00%      0.00% |      143866    100.00%    100.00% |           0      0.00%    100.00%
system.ruby.DMA_Controller.Data::total         143866                      
system.ruby.DMA_Controller.DMA_Ack       |           0      0.00%      0.00% |      465512    100.00%    100.00% |           0      0.00%    100.00%
system.ruby.DMA_Controller.DMA_Ack::total       465512                      
system.ruby.DMA_Controller.Inv_Ack       |           0      0.00%      0.00% |        6438    100.00%    100.00% |           0      0.00%    100.00%
system.ruby.DMA_Controller.Inv_Ack::total         6438                      
system.ruby.DMA_Controller.All_Acks      |           0      0.00%      0.00% |      465512    100.00%    100.00% |           0      0.00%    100.00%
system.ruby.DMA_Controller.All_Acks::total       465512                      
system.ruby.DMA_Controller.READY.ReadRequest |           0      0.00%      0.00% |      143866    100.00%    100.00% |           0      0.00%    100.00%
system.ruby.DMA_Controller.READY.ReadRequest::total       143866                      
system.ruby.DMA_Controller.READY.WriteRequest |           0      0.00%      0.00% |      465512    100.00%    100.00% |           0      0.00%    100.00%
system.ruby.DMA_Controller.READY.WriteRequest::total       465512                      
system.ruby.DMA_Controller.BUSY_RD.ReadRequest |           0      0.00%      0.00% |     4119635    100.00%    100.00% |           0      0.00%    100.00%
system.ruby.DMA_Controller.BUSY_RD.ReadRequest::total      4119635                      
system.ruby.DMA_Controller.BUSY_RD.Data  |           0      0.00%      0.00% |      143866    100.00%    100.00% |           0      0.00%    100.00%
system.ruby.DMA_Controller.BUSY_RD.Data::total       143866                      
system.ruby.DMA_Controller.BUSY_WR.WriteRequest |           0      0.00%      0.00% |    13859008    100.00%    100.00% |           0      0.00%    100.00%
system.ruby.DMA_Controller.BUSY_WR.WriteRequest::total     13859008                      
system.ruby.DMA_Controller.BUSY_WR.DMA_Ack |           0      0.00%      0.00% |      465512    100.00%    100.00% |           0      0.00%    100.00%
system.ruby.DMA_Controller.BUSY_WR.DMA_Ack::total       465512                      
system.ruby.DMA_Controller.BUSY_WR.Inv_Ack |           0      0.00%      0.00% |        6438    100.00%    100.00% |           0      0.00%    100.00%
system.ruby.DMA_Controller.BUSY_WR.Inv_Ack::total         6438                      
system.ruby.DMA_Controller.BUSY_WR.All_Acks |           0      0.00%      0.00% |      465512    100.00%    100.00% |           0      0.00%    100.00%
system.ruby.DMA_Controller.BUSY_WR.All_Acks::total       465512                      
system.ruby.L1Cache_Controller.Load        1605187510      0.00%      0.00%
system.ruby.L1Cache_Controller.Ifetch    18446744072158515200      0.00%      0.00%
system.ruby.L1Cache_Controller.Store        582951639      0.00%      0.00%
system.ruby.L1Cache_Controller.L1_Replacement     97345437      0.00%      0.00%
system.ruby.L1Cache_Controller.Fwd_GETX           379      0.00%      0.00%
system.ruby.L1Cache_Controller.Fwd_DMA           2945      0.00%      0.00%
system.ruby.L1Cache_Controller.Inv                 14      0.00%      0.00%
system.ruby.L1Cache_Controller.Data          51259302      0.00%      0.00%
system.ruby.L1Cache_Controller.Exclusive_Data     47130824      0.00%      0.00%
system.ruby.L1Cache_Controller.Writeback_Ack     43166410      0.00%      0.00%
system.ruby.L1Cache_Controller.Writeback_Ack_Data     53719517      0.00%      0.00%
system.ruby.L1Cache_Controller.All_acks      27177388      0.00%      0.00%
system.ruby.L1Cache_Controller.Use_Timeout     47130824      0.00%      0.00%
system.ruby.L1Cache_Controller.I.Load        31177766      0.00%      0.00%
system.ruby.L1Cache_Controller.I.Ifetch      40034973      0.00%      0.00%
system.ruby.L1Cache_Controller.I.Store       25674858      0.00%      0.00%
system.ruby.L1Cache_Controller.I.L1_Replacement          332      0.00%      0.00%
system.ruby.L1Cache_Controller.S.Load       331593029      0.00%      0.00%
system.ruby.L1Cache_Controller.S.Ifetch  18446744072117876736      0.00%      0.00%
system.ruby.L1Cache_Controller.S.Store        1502530      0.00%      0.00%
system.ruby.L1Cache_Controller.S.L1_Replacement     49756235      0.00%      0.00%
system.ruby.L1Cache_Controller.S.Inv               14      0.00%      0.00%
system.ruby.L1Cache_Controller.M.Load       177309257      0.00%      0.00%
system.ruby.L1Cache_Controller.M.Ifetch          1808      0.00%      0.00%
system.ruby.L1Cache_Controller.M.Store        3108841      0.00%      0.00%
system.ruby.L1Cache_Controller.M.L1_Replacement     14080483      0.00%      0.00%
system.ruby.L1Cache_Controller.M.Fwd_GETX           23      0.00%      0.00%
system.ruby.L1Cache_Controller.M_W.Load      30727415      0.00%      0.00%
system.ruby.L1Cache_Controller.M_W.Ifetch         2228      0.00%      0.00%
system.ruby.L1Cache_Controller.M_W.Store      2764038      0.00%      0.00%
system.ruby.L1Cache_Controller.M_W.L1_Replacement       143846      0.00%      0.00%
system.ruby.L1Cache_Controller.M_W.Use_Timeout     17189398      0.00%      0.00%
system.ruby.L1Cache_Controller.MM.Load     1030645489      0.00%      0.00%
system.ruby.L1Cache_Controller.MM.Store     511123347      0.00%      0.00%
system.ruby.L1Cache_Controller.MM.L1_Replacement     33049210      0.00%      0.00%
system.ruby.L1Cache_Controller.MM.Fwd_GETX          356      0.00%      0.00%
system.ruby.L1Cache_Controller.MM.Fwd_DMA         2945      0.00%      0.00%
system.ruby.L1Cache_Controller.MM_W.Load      3155273      0.00%      0.00%
system.ruby.L1Cache_Controller.MM_W.Store     38744958      0.00%      0.00%
system.ruby.L1Cache_Controller.MM_W.L1_Replacement       208468      0.00%      0.00%
system.ruby.L1Cache_Controller.MM_W.Use_Timeout     29941426      0.00%      0.00%
system.ruby.L1Cache_Controller.IM.L1_Replacement        20619      0.00%      0.00%
system.ruby.L1Cache_Controller.IM.Exclusive_Data     25674858      0.00%      0.00%
system.ruby.L1Cache_Controller.SM.L1_Replacement        30984      0.00%      0.00%
system.ruby.L1Cache_Controller.SM.Exclusive_Data      1502530      0.00%      0.00%
system.ruby.L1Cache_Controller.OM.L1_Replacement          383      0.00%      0.00%
system.ruby.L1Cache_Controller.OM.All_acks     27177388      0.00%      0.00%
system.ruby.L1Cache_Controller.IS.L1_Replacement        54877      0.00%      0.00%
system.ruby.L1Cache_Controller.IS.Data       51259302      0.00%      0.00%
system.ruby.L1Cache_Controller.IS.Exclusive_Data     19953436      0.00%      0.00%
system.ruby.L1Cache_Controller.SI.Load         487643      0.00%      0.00%
system.ruby.L1Cache_Controller.SI.Ifetch       598602      0.00%      0.00%
system.ruby.L1Cache_Controller.SI.Store          4063      0.00%      0.00%
system.ruby.L1Cache_Controller.SI.Writeback_Ack     43166410      0.00%      0.00%
system.ruby.L1Cache_Controller.SI.Writeback_Ack_Data      6589824      0.00%      0.00%
system.ruby.L1Cache_Controller.MI.Load          91638      0.00%      0.00%
system.ruby.L1Cache_Controller.MI.Ifetch           82      0.00%      0.00%
system.ruby.L1Cache_Controller.MI.Store         29004      0.00%      0.00%
system.ruby.L1Cache_Controller.MI.Writeback_Ack_Data     47129693      0.00%      0.00%
system.ruby.L2Cache_Controller.L1_GETS       71218630      0.00%      0.00%
system.ruby.L2Cache_Controller.L1_GETX       27179681      0.00%      0.00%
system.ruby.L2Cache_Controller.L1_PUTX       47129727      0.00%      0.00%
system.ruby.L2Cache_Controller.L1_PUTS_only     49756235      0.00%      0.00%
system.ruby.L2Cache_Controller.L1_PUTS             66      0.00%      0.00%
system.ruby.L2Cache_Controller.Fwd_GETX         20295      0.00%      0.00%
system.ruby.L2Cache_Controller.Fwd_DMA           6033      0.00%      0.00%
system.ruby.L2Cache_Controller.Inv               6438      0.00%      0.00%
system.ruby.L2Cache_Controller.IntAck              14      0.00%      0.00%
system.ruby.L2Cache_Controller.All_Acks       7264842      0.00%      0.00%
system.ruby.L2Cache_Controller.Data          15161286      0.00%      0.00%
system.ruby.L2Cache_Controller.Data_Exclusive          379      0.00%      0.00%
system.ruby.L2Cache_Controller.L1_WBCLEANDATA      6589824      0.00%      0.00%
system.ruby.L2Cache_Controller.L1_WBDIRTYDATA     47129693      0.00%      0.00%
system.ruby.L2Cache_Controller.Writeback_Ack      7236567      0.00%      0.00%
system.ruby.L2Cache_Controller.Unblock       94425712      0.00%      0.00%
system.ruby.L2Cache_Controller.Exclusive_Unblock     47130824      0.00%      0.00%
system.ruby.L2Cache_Controller.DmaAck            2945      0.00%      0.00%
system.ruby.L2Cache_Controller.L2_Replacement     13429779      0.00%      0.00%
system.ruby.L2Cache_Controller.NP.L1_GETS      7896339      0.00%      0.00%
system.ruby.L2Cache_Controller.NP.L1_GETX      5546560      0.00%      0.00%
system.ruby.L2Cache_Controller.NP.Inv            4113      0.00%      0.00%
system.ruby.L2Cache_Controller.I.L1_GETS          120      0.00%      0.00%
system.ruby.L2Cache_Controller.I.L1_GETX            1      0.00%      0.00%
system.ruby.L2Cache_Controller.ILS.L1_GETX      1332675      0.00%      0.00%
system.ruby.L2Cache_Controller.ILS.L1_PUTS_only      6589825      0.00%      0.00%
system.ruby.L2Cache_Controller.ILS.Inv             12      0.00%      0.00%
system.ruby.L2Cache_Controller.ILX.L1_PUTX     47129693      0.00%      0.00%
system.ruby.L2Cache_Controller.ILX.Fwd_GETX          379      0.00%      0.00%
system.ruby.L2Cache_Controller.ILX.Fwd_DMA         2945      0.00%      0.00%
system.ruby.L2Cache_Controller.S.L1_GETS     43362844      0.00%      0.00%
system.ruby.L2Cache_Controller.S.L1_GETX       215737      0.00%      0.00%
system.ruby.L2Cache_Controller.S.Inv             2311      0.00%      0.00%
system.ruby.L2Cache_Controller.S.L2_Replacement      6166922      0.00%      0.00%
system.ruby.L2Cache_Controller.SLS.L1_GETX       169855      0.00%      0.00%
system.ruby.L2Cache_Controller.SLS.L1_PUTS_only     43166410      0.00%      0.00%
system.ruby.L2Cache_Controller.SLS.Inv              2      0.00%      0.00%
system.ruby.L2Cache_Controller.SLS.L2_Replacement        26278      0.00%      0.00%
system.ruby.L2Cache_Controller.M.L1_GETS     19953436      0.00%      0.00%
system.ruby.L2Cache_Controller.M.L1_GETX     19912560      0.00%      0.00%
system.ruby.L2Cache_Controller.M.Fwd_GETX        19916      0.00%      0.00%
system.ruby.L2Cache_Controller.M.Fwd_DMA         3042      0.00%      0.00%
system.ruby.L2Cache_Controller.M.L2_Replacement      7236567      0.00%      0.00%
system.ruby.L2Cache_Controller.IFGX.Data_Exclusive          379      0.00%      0.00%
system.ruby.L2Cache_Controller.IW.L1_GETS          451      0.00%      0.00%
system.ruby.L2Cache_Controller.IW.L1_GETX            3      0.00%      0.00%
system.ruby.L2Cache_Controller.IW.L1_WBCLEANDATA      6589824      0.00%      0.00%
system.ruby.L2Cache_Controller.SW.L1_GETS         2470      0.00%      0.00%
system.ruby.L2Cache_Controller.SW.L1_GETX           39      0.00%      0.00%
system.ruby.L2Cache_Controller.SW.Unblock     43166410      0.00%      0.00%
system.ruby.L2Cache_Controller.SW.L2_Replacement           12      0.00%      0.00%
system.ruby.L2Cache_Controller.ILXW.L1_GETS         2766      0.00%      0.00%
system.ruby.L2Cache_Controller.ILXW.L1_GETX         1423      0.00%      0.00%
system.ruby.L2Cache_Controller.ILXW.Fwd_DMA           46      0.00%      0.00%
system.ruby.L2Cache_Controller.ILXW.L1_WBDIRTYDATA     47129693      0.00%      0.00%
system.ruby.L2Cache_Controller.IGS.L1_GETX           45      0.00%      0.00%
system.ruby.L2Cache_Controller.IGS.Data       7896458      0.00%      0.00%
system.ruby.L2Cache_Controller.IGS.Unblock      7896458      0.00%      0.00%
system.ruby.L2Cache_Controller.IGM.Data       5762298      0.00%      0.00%
system.ruby.L2Cache_Controller.IGMLS.Data      1502530      0.00%      0.00%
system.ruby.L2Cache_Controller.IGMO.All_Acks      7264828      0.00%      0.00%
system.ruby.L2Cache_Controller.IGMO.Exclusive_Unblock      7264828      0.00%      0.00%
system.ruby.L2Cache_Controller.II.IntAck           14      0.00%      0.00%
system.ruby.L2Cache_Controller.II.All_Acks           14      0.00%      0.00%
system.ruby.L2Cache_Controller.MM.Exclusive_Unblock     19912560      0.00%      0.00%
system.ruby.L2Cache_Controller.SS.L1_GETX           15      0.00%      0.00%
system.ruby.L2Cache_Controller.SS.L1_PUTS           66      0.00%      0.00%
system.ruby.L2Cache_Controller.SS.Unblock     43362844      0.00%      0.00%
system.ruby.L2Cache_Controller.OO.L1_PUTX           34      0.00%      0.00%
system.ruby.L2Cache_Controller.OO.Exclusive_Unblock     19953436      0.00%      0.00%
system.ruby.L2Cache_Controller.MI.L1_GETS          204      0.00%      0.00%
system.ruby.L2Cache_Controller.MI.L1_GETX          768      0.00%      0.00%
system.ruby.L2Cache_Controller.MI.Writeback_Ack      7236567      0.00%      0.00%
system.ruby.L2Cache_Controller.ILXD.DmaAck         2945      0.00%      0.00%

---------- End Simulation Statistics   ----------