
---------- Begin Simulation Statistics ----------
sim_seconds                                631.876901                       # Number of seconds simulated
sim_ticks                                631876900958000                       # Number of ticks simulated
final_tick                               631876900958000                       # Number of ticks from beginning of simulation (restored from checkpoints and never reset)
sim_freq                                 1000000000000                       # Frequency of simulated ticks
host_inst_rate                                 158763                       # Simulator instruction rate (inst/s)
host_op_rate                                   169243                       # Simulator op (including micro ops) rate (op/s)
host_tick_rate                            14280393840                       # Simulator tick rate (ticks/s)
host_mem_usage                                2710348                       # Number of bytes of host memory used
host_seconds                                 44247.86                       # Real time elapsed on the host
sim_insts                                  7024938849                       # Number of instructions simulated
sim_ops                                    7488633084                       # Number of ops (including micro ops) simulated
system.voltage_domain.voltage                       1                       # Voltage in Volts
system.clk_domain.clock                          1000                       # Clock period in ticks
system.bootmem.pwrStateResidencyTicks::UNDEFINED 631876900958000                       # Cumulative time (in ticks) in various power states
system.bootmem.bytes_read::ruby.network.ext_links3.ext_node          576                       # Number of bytes read from this memory
system.bootmem.bytes_read::total                  576                       # Number of bytes read from this memory
system.bootmem.num_reads::ruby.network.ext_links3.ext_node            9                       # Number of read requests responded to by this memory
system.bootmem.num_reads::total                     9                       # Number of read requests responded to by this memory
system.bootmem.bw_read::ruby.network.ext_links3.ext_node            1                       # Total read bandwidth from this memory (bytes/s)
system.bootmem.bw_read::total                       1                       # Total read bandwidth from this memory (bytes/s)
system.bootmem.bw_total::ruby.network.ext_links3.ext_node            1                       # Total bandwidth to/from this memory (bytes/s)
system.bootmem.bw_total::total                      1                       # Total bandwidth to/from this memory (bytes/s)
system.mem_ctrls.pwrStateResidencyTicks::UNDEFINED 631876900958000                       # Cumulative time (in ticks) in various power states
system.mem_ctrls.bytes_read::ruby.dir_cntrl0   1595560064                       # Number of bytes read from this memory
system.mem_ctrls.bytes_read::total         1595560064                       # Number of bytes read from this memory
system.mem_ctrls.bytes_written::ruby.dir_cntrl0    698555456                       # Number of bytes written to this memory
system.mem_ctrls.bytes_written::total       698555456                       # Number of bytes written to this memory
system.mem_ctrls.num_reads::ruby.dir_cntrl0     24930626                       # Number of read requests responded to by this memory
system.mem_ctrls.num_reads::total            24930626                       # Number of read requests responded to by this memory
system.mem_ctrls.num_writes::ruby.dir_cntrl0     10914929                       # Number of write requests responded to by this memory
system.mem_ctrls.num_writes::total           10914929                       # Number of write requests responded to by this memory
system.mem_ctrls.bw_read::ruby.dir_cntrl0      2525112                       # Total read bandwidth from this memory (bytes/s)
system.mem_ctrls.bw_read::total               2525112                       # Total read bandwidth from this memory (bytes/s)
system.mem_ctrls.bw_write::ruby.dir_cntrl0      1105525                       # Write bandwidth from this memory (bytes/s)
system.mem_ctrls.bw_write::total              1105525                       # Write bandwidth from this memory (bytes/s)
system.mem_ctrls.bw_total::ruby.dir_cntrl0      3630637                       # Total bandwidth to/from this memory (bytes/s)
system.mem_ctrls.bw_total::total              3630637                       # Total bandwidth to/from this memory (bytes/s)
system.mem_ctrls.readReqs                    24930626                       # Number of read requests accepted
system.mem_ctrls.writeReqs                   10914929                       # Number of write requests accepted
system.mem_ctrls.readBursts                  24930626                       # Number of DRAM read bursts, including those serviced by the write queue
system.mem_ctrls.writeBursts                 10914929                       # Number of DRAM write bursts, including those merged in the write queue
system.mem_ctrls.bytesReadDRAM             1590796928                       # Total number of bytes read from DRAM
system.mem_ctrls.bytesReadWrQ                 4763136                       # Total number of bytes read from write queue
system.mem_ctrls.bytesWritten               698481216                       # Total number of bytes written to DRAM
system.mem_ctrls.bytesReadSys              1595560064                       # Total read bytes from the system interface side
system.mem_ctrls.bytesWrittenSys            698555456                       # Total written bytes from the system interface side
system.mem_ctrls.servicedByWrQ                  74424                       # Number of DRAM read bursts serviced by the write queue
system.mem_ctrls.mergedWrBursts                  1128                       # Number of DRAM write bursts merged with an existing one
system.mem_ctrls.neitherReadNorWriteReqs            0                       # Number of requests that are neither read nor write
system.mem_ctrls.perBankRdBursts::0           1562882                       # Per bank write bursts
system.mem_ctrls.perBankRdBursts::1           1644361                       # Per bank write bursts
system.mem_ctrls.perBankRdBursts::2           1565076                       # Per bank write bursts
system.mem_ctrls.perBankRdBursts::3           1406337                       # Per bank write bursts
system.mem_ctrls.perBankRdBursts::4           1313083                       # Per bank write bursts
system.mem_ctrls.perBankRdBursts::5           1712320                       # Per bank write bursts
system.mem_ctrls.perBankRdBursts::6           1630285                       # Per bank write bursts
system.mem_ctrls.perBankRdBursts::7           1434391                       # Per bank write bursts
system.mem_ctrls.perBankRdBursts::8           1260474                       # Per bank write bursts
system.mem_ctrls.perBankRdBursts::9           1573000                       # Per bank write bursts
system.mem_ctrls.perBankRdBursts::10          1720270                       # Per bank write bursts
system.mem_ctrls.perBankRdBursts::11          1506750                       # Per bank write bursts
system.mem_ctrls.perBankRdBursts::12          1575577                       # Per bank write bursts
system.mem_ctrls.perBankRdBursts::13          1685659                       # Per bank write bursts
system.mem_ctrls.perBankRdBursts::14          1856476                       # Per bank write bursts
system.mem_ctrls.perBankRdBursts::15          1409261                       # Per bank write bursts
system.mem_ctrls.perBankWrBursts::0            739282                       # Per bank write bursts
system.mem_ctrls.perBankWrBursts::1            789103                       # Per bank write bursts
system.mem_ctrls.perBankWrBursts::2            667207                       # Per bank write bursts
system.mem_ctrls.perBankWrBursts::3            569498                       # Per bank write bursts
system.mem_ctrls.perBankWrBursts::4            620755                       # Per bank write bursts
system.mem_ctrls.perBankWrBursts::5            707491                       # Per bank write bursts
system.mem_ctrls.perBankWrBursts::6            682272                       # Per bank write bursts
system.mem_ctrls.perBankWrBursts::7            661259                       # Per bank write bursts
system.mem_ctrls.perBankWrBursts::8            618338                       # Per bank write bursts
system.mem_ctrls.perBankWrBursts::9            630432                       # Per bank write bursts
system.mem_ctrls.perBankWrBursts::10           744498                       # Per bank write bursts
system.mem_ctrls.perBankWrBursts::11           618223                       # Per bank write bursts
system.mem_ctrls.perBankWrBursts::12           693781                       # Per bank write bursts
system.mem_ctrls.perBankWrBursts::13           735966                       # Per bank write bursts
system.mem_ctrls.perBankWrBursts::14           798549                       # Per bank write bursts
system.mem_ctrls.perBankWrBursts::15           637115                       # Per bank write bursts
system.mem_ctrls.numRdRetry                         0                       # Number of times read queue was full causing retry
system.mem_ctrls.numWrRetry                      2857                       # Number of times write queue was full causing retry
system.mem_ctrls.totGap                  631876900389000                       # Total gap between requests
system.mem_ctrls.readPktSize::0                     0                       # Read request sizes (log2)
system.mem_ctrls.readPktSize::1                     0                       # Read request sizes (log2)
system.mem_ctrls.readPktSize::2                     0                       # Read request sizes (log2)
system.mem_ctrls.readPktSize::3                     0                       # Read request sizes (log2)
system.mem_ctrls.readPktSize::4                     0                       # Read request sizes (log2)
system.mem_ctrls.readPktSize::5                     0                       # Read request sizes (log2)
system.mem_ctrls.readPktSize::6              24930626                       # Read request sizes (log2)
system.mem_ctrls.writePktSize::0                    0                       # Write request sizes (log2)
system.mem_ctrls.writePktSize::1                    0                       # Write request sizes (log2)
system.mem_ctrls.writePktSize::2                    0                       # Write request sizes (log2)
system.mem_ctrls.writePktSize::3                    0                       # Write request sizes (log2)
system.mem_ctrls.writePktSize::4                    0                       # Write request sizes (log2)
system.mem_ctrls.writePktSize::5                    0                       # Write request sizes (log2)
system.mem_ctrls.writePktSize::6             10914929                       # Write request sizes (log2)
system.mem_ctrls.rdQLenPdf::0                14443478                       # What read queue length does an incoming req see
system.mem_ctrls.rdQLenPdf::1                 4737391                       # What read queue length does an incoming req see
system.mem_ctrls.rdQLenPdf::2                 1009702                       # What read queue length does an incoming req see
system.mem_ctrls.rdQLenPdf::3                  458841                       # What read queue length does an incoming req see
system.mem_ctrls.rdQLenPdf::4                  333762                       # What read queue length does an incoming req see
system.mem_ctrls.rdQLenPdf::5                  437205                       # What read queue length does an incoming req see
system.mem_ctrls.rdQLenPdf::6                  595808                       # What read queue length does an incoming req see
system.mem_ctrls.rdQLenPdf::7                  749778                       # What read queue length does an incoming req see
system.mem_ctrls.rdQLenPdf::8                  300148                       # What read queue length does an incoming req see
system.mem_ctrls.rdQLenPdf::9                  298396                       # What read queue length does an incoming req see
system.mem_ctrls.rdQLenPdf::10                 304259                       # What read queue length does an incoming req see
system.mem_ctrls.rdQLenPdf::11                 301688                       # What read queue length does an incoming req see
system.mem_ctrls.rdQLenPdf::12                 288940                       # What read queue length does an incoming req see
system.mem_ctrls.rdQLenPdf::13                 256791                       # What read queue length does an incoming req see
system.mem_ctrls.rdQLenPdf::14                 174841                       # What read queue length does an incoming req see
system.mem_ctrls.rdQLenPdf::15                 165172                       # What read queue length does an incoming req see
system.mem_ctrls.rdQLenPdf::16                      2                       # What read queue length does an incoming req see
system.mem_ctrls.rdQLenPdf::17                      0                       # What read queue length does an incoming req see
system.mem_ctrls.rdQLenPdf::18                      0                       # What read queue length does an incoming req see
system.mem_ctrls.rdQLenPdf::19                      0                       # What read queue length does an incoming req see
system.mem_ctrls.rdQLenPdf::20                      0                       # What read queue length does an incoming req see
system.mem_ctrls.rdQLenPdf::21                      0                       # What read queue length does an incoming req see
system.mem_ctrls.rdQLenPdf::22                      0                       # What read queue length does an incoming req see
system.mem_ctrls.rdQLenPdf::23                      0                       # What read queue length does an incoming req see
system.mem_ctrls.rdQLenPdf::24                      0                       # What read queue length does an incoming req see
system.mem_ctrls.rdQLenPdf::25                      0                       # What read queue length does an incoming req see
system.mem_ctrls.rdQLenPdf::26                      0                       # What read queue length does an incoming req see
system.mem_ctrls.rdQLenPdf::27                      0                       # What read queue length does an incoming req see
system.mem_ctrls.rdQLenPdf::28                      0                       # What read queue length does an incoming req see
system.mem_ctrls.rdQLenPdf::29                      0                       # What read queue length does an incoming req see
system.mem_ctrls.rdQLenPdf::30                      0                       # What read queue length does an incoming req see
system.mem_ctrls.rdQLenPdf::31                      0                       # What read queue length does an incoming req see
system.mem_ctrls.wrQLenPdf::0                       1                       # What write queue length does an incoming req see
system.mem_ctrls.wrQLenPdf::1                       1                       # What write queue length does an incoming req see
system.mem_ctrls.wrQLenPdf::2                       1                       # What write queue length does an incoming req see
system.mem_ctrls.wrQLenPdf::3                       1                       # What write queue length does an incoming req see
system.mem_ctrls.wrQLenPdf::4                       1                       # What write queue length does an incoming req see
system.mem_ctrls.wrQLenPdf::5                       1                       # What write queue length does an incoming req see
system.mem_ctrls.wrQLenPdf::6                       1                       # What write queue length does an incoming req see
system.mem_ctrls.wrQLenPdf::7                       1                       # What write queue length does an incoming req see
system.mem_ctrls.wrQLenPdf::8                       1                       # What write queue length does an incoming req see
system.mem_ctrls.wrQLenPdf::9                       1                       # What write queue length does an incoming req see
system.mem_ctrls.wrQLenPdf::10                      1                       # What write queue length does an incoming req see
system.mem_ctrls.wrQLenPdf::11                      1                       # What write queue length does an incoming req see
system.mem_ctrls.wrQLenPdf::12                      1                       # What write queue length does an incoming req see
system.mem_ctrls.wrQLenPdf::13                      1                       # What write queue length does an incoming req see
system.mem_ctrls.wrQLenPdf::14                      1                       # What write queue length does an incoming req see
system.mem_ctrls.wrQLenPdf::15                 181008                       # What write queue length does an incoming req see
system.mem_ctrls.wrQLenPdf::16                 208026                       # What write queue length does an incoming req see
system.mem_ctrls.wrQLenPdf::17                 371373                       # What write queue length does an incoming req see
system.mem_ctrls.wrQLenPdf::18                 472431                       # What write queue length does an incoming req see
system.mem_ctrls.wrQLenPdf::19                 501627                       # What write queue length does an incoming req see
system.mem_ctrls.wrQLenPdf::20                 510249                       # What write queue length does an incoming req see
system.mem_ctrls.wrQLenPdf::21                 522318                       # What write queue length does an incoming req see
system.mem_ctrls.wrQLenPdf::22                 534524                       # What write queue length does an incoming req see
system.mem_ctrls.wrQLenPdf::23                 544108                       # What write queue length does an incoming req see
system.mem_ctrls.wrQLenPdf::24                 558336                       # What write queue length does an incoming req see
system.mem_ctrls.wrQLenPdf::25                 568553                       # What write queue length does an incoming req see
system.mem_ctrls.wrQLenPdf::26                 576131                       # What write queue length does an incoming req see
system.mem_ctrls.wrQLenPdf::27                 586585                       # What write queue length does an incoming req see
system.mem_ctrls.wrQLenPdf::28                 595928                       # What write queue length does an incoming req see
system.mem_ctrls.wrQLenPdf::29                 596873                       # What write queue length does an incoming req see
system.mem_ctrls.wrQLenPdf::30                 598494                       # What write queue length does an incoming req see
system.mem_ctrls.wrQLenPdf::31                 599934                       # What write queue length does an incoming req see
system.mem_ctrls.wrQLenPdf::32                 605362                       # What write queue length does an incoming req see
system.mem_ctrls.wrQLenPdf::33                 102333                       # What write queue length does an incoming req see
system.mem_ctrls.wrQLenPdf::34                  88814                       # What write queue length does an incoming req see
system.mem_ctrls.wrQLenPdf::35                  74202                       # What write queue length does an incoming req see
system.mem_ctrls.wrQLenPdf::36                  62246                       # What write queue length does an incoming req see
system.mem_ctrls.wrQLenPdf::37                  58287                       # What write queue length does an incoming req see
system.mem_ctrls.wrQLenPdf::38                  61289                       # What write queue length does an incoming req see
system.mem_ctrls.wrQLenPdf::39                  62795                       # What write queue length does an incoming req see
system.mem_ctrls.wrQLenPdf::40                  72918                       # What write queue length does an incoming req see
system.mem_ctrls.wrQLenPdf::41                  89933                       # What write queue length does an incoming req see
system.mem_ctrls.wrQLenPdf::42                 100001                       # What write queue length does an incoming req see
system.mem_ctrls.wrQLenPdf::43                  83904                       # What write queue length does an incoming req see
system.mem_ctrls.wrQLenPdf::44                 116158                       # What write queue length does an incoming req see
system.mem_ctrls.wrQLenPdf::45                  86061                       # What write queue length does an incoming req see
system.mem_ctrls.wrQLenPdf::46                  76762                       # What write queue length does an incoming req see
system.mem_ctrls.wrQLenPdf::47                  90938                       # What write queue length does an incoming req see
system.mem_ctrls.wrQLenPdf::48                  97271                       # What write queue length does an incoming req see
system.mem_ctrls.wrQLenPdf::49                 115019                       # What write queue length does an incoming req see
system.mem_ctrls.wrQLenPdf::50                  97135                       # What write queue length does an incoming req see
system.mem_ctrls.wrQLenPdf::51                  90740                       # What write queue length does an incoming req see
system.mem_ctrls.wrQLenPdf::52                  64004                       # What write queue length does an incoming req see
system.mem_ctrls.wrQLenPdf::53                  39490                       # What write queue length does an incoming req see
system.mem_ctrls.wrQLenPdf::54                  17221                       # What write queue length does an incoming req see
system.mem_ctrls.wrQLenPdf::55                   8723                       # What write queue length does an incoming req see
system.mem_ctrls.wrQLenPdf::56                   4948                       # What write queue length does an incoming req see
system.mem_ctrls.wrQLenPdf::57                   3653                       # What write queue length does an incoming req see
system.mem_ctrls.wrQLenPdf::58                   2901                       # What write queue length does an incoming req see
system.mem_ctrls.wrQLenPdf::59                   2456                       # What write queue length does an incoming req see
system.mem_ctrls.wrQLenPdf::60                   2046                       # What write queue length does an incoming req see
system.mem_ctrls.wrQLenPdf::61                   1920                       # What write queue length does an incoming req see
system.mem_ctrls.wrQLenPdf::62                   2697                       # What write queue length does an incoming req see
system.mem_ctrls.wrQLenPdf::63                   5061                       # What write queue length does an incoming req see
system.mem_ctrls.bytesPerActivate::samples     10459719                       # Bytes accessed per row activation
system.mem_ctrls.bytesPerActivate::mean    218.865872                       # Bytes accessed per row activation
system.mem_ctrls.bytesPerActivate::gmean   133.556017                       # Bytes accessed per row activation
system.mem_ctrls.bytesPerActivate::stdev   272.279073                       # Bytes accessed per row activation
system.mem_ctrls.bytesPerActivate::0-127      5008511     47.88%     47.88% # Bytes accessed per row activation
system.mem_ctrls.bytesPerActivate::128-255      2924243     27.96%     75.84% # Bytes accessed per row activation
system.mem_ctrls.bytesPerActivate::256-383       833714      7.97%     83.81% # Bytes accessed per row activation
system.mem_ctrls.bytesPerActivate::384-511       379820      3.63%     87.44% # Bytes accessed per row activation
system.mem_ctrls.bytesPerActivate::512-639       226581      2.17%     89.61% # Bytes accessed per row activation
system.mem_ctrls.bytesPerActivate::640-767       144204      1.38%     90.99% # Bytes accessed per row activation
system.mem_ctrls.bytesPerActivate::768-895       101449      0.97%     91.96% # Bytes accessed per row activation
system.mem_ctrls.bytesPerActivate::896-1023        84031      0.80%     92.76% # Bytes accessed per row activation
system.mem_ctrls.bytesPerActivate::1024-1151       757166      7.24%    100.00% # Bytes accessed per row activation
system.mem_ctrls.bytesPerActivate::total     10459719                       # Bytes accessed per row activation
system.mem_ctrls.rdPerTurnAround::samples       641190                       # Reads before turning the bus around for writes
system.mem_ctrls.rdPerTurnAround::mean      38.765640                       # Reads before turning the bus around for writes
system.mem_ctrls.rdPerTurnAround::stdev     34.770424                       # Reads before turning the bus around for writes
system.mem_ctrls.rdPerTurnAround::0-255        640449     99.88%     99.88% # Reads before turning the bus around for writes
system.mem_ctrls.rdPerTurnAround::256-511          593      0.09%     99.98% # Reads before turning the bus around for writes
system.mem_ctrls.rdPerTurnAround::512-767           91      0.01%     99.99% # Reads before turning the bus around for writes
system.mem_ctrls.rdPerTurnAround::768-1023           22      0.00%     99.99% # Reads before turning the bus around for writes
system.mem_ctrls.rdPerTurnAround::1024-1279           13      0.00%    100.00% # Reads before turning the bus around for writes
system.mem_ctrls.rdPerTurnAround::1280-1535            3      0.00%    100.00% # Reads before turning the bus around for writes
system.mem_ctrls.rdPerTurnAround::1536-1791            9      0.00%    100.00% # Reads before turning the bus around for writes
system.mem_ctrls.rdPerTurnAround::1792-2047            4      0.00%    100.00% # Reads before turning the bus around for writes
system.mem_ctrls.rdPerTurnAround::2304-2559            2      0.00%    100.00% # Reads before turning the bus around for writes
system.mem_ctrls.rdPerTurnAround::2560-2815            2      0.00%    100.00% # Reads before turning the bus around for writes
system.mem_ctrls.rdPerTurnAround::3840-4095            1      0.00%    100.00% # Reads before turning the bus around for writes
system.mem_ctrls.rdPerTurnAround::7424-7679            1      0.00%    100.00% # Reads before turning the bus around for writes
system.mem_ctrls.rdPerTurnAround::total        641190                       # Reads before turning the bus around for writes
system.mem_ctrls.wrPerTurnAround::samples       641190                       # Writes before turning the bus around for reads
system.mem_ctrls.wrPerTurnAround::mean      17.021115                       # Writes before turning the bus around for reads
system.mem_ctrls.wrPerTurnAround::gmean     16.883785                       # Writes before turning the bus around for reads
system.mem_ctrls.wrPerTurnAround::stdev      2.764150                       # Writes before turning the bus around for reads
system.mem_ctrls.wrPerTurnAround::16-17        454894     70.95%     70.95% # Writes before turning the bus around for reads
system.mem_ctrls.wrPerTurnAround::18-19        156158     24.35%     95.30% # Writes before turning the bus around for reads
system.mem_ctrls.wrPerTurnAround::20-21         11831      1.85%     97.14% # Writes before turning the bus around for reads
system.mem_ctrls.wrPerTurnAround::22-23          4511      0.70%     97.85% # Writes before turning the bus around for reads
system.mem_ctrls.wrPerTurnAround::24-25          2916      0.45%     98.30% # Writes before turning the bus around for reads
system.mem_ctrls.wrPerTurnAround::26-27          1999      0.31%     98.61% # Writes before turning the bus around for reads
system.mem_ctrls.wrPerTurnAround::28-29          1827      0.28%     98.90% # Writes before turning the bus around for reads
system.mem_ctrls.wrPerTurnAround::30-31          2313      0.36%     99.26% # Writes before turning the bus around for reads
system.mem_ctrls.wrPerTurnAround::32-33          1472      0.23%     99.49% # Writes before turning the bus around for reads
system.mem_ctrls.wrPerTurnAround::34-35           662      0.10%     99.59% # Writes before turning the bus around for reads
system.mem_ctrls.wrPerTurnAround::36-37          1214      0.19%     99.78% # Writes before turning the bus around for reads
system.mem_ctrls.wrPerTurnAround::38-39           102      0.02%     99.80% # Writes before turning the bus around for reads
system.mem_ctrls.wrPerTurnAround::40-41            76      0.01%     99.81% # Writes before turning the bus around for reads
system.mem_ctrls.wrPerTurnAround::42-43           396      0.06%     99.87% # Writes before turning the bus around for reads
system.mem_ctrls.wrPerTurnAround::44-45            79      0.01%     99.88% # Writes before turning the bus around for reads
system.mem_ctrls.wrPerTurnAround::46-47            75      0.01%     99.90% # Writes before turning the bus around for reads
system.mem_ctrls.wrPerTurnAround::48-49           101      0.02%     99.91% # Writes before turning the bus around for reads
system.mem_ctrls.wrPerTurnAround::50-51            53      0.01%     99.92% # Writes before turning the bus around for reads
system.mem_ctrls.wrPerTurnAround::52-53            27      0.00%     99.92% # Writes before turning the bus around for reads
system.mem_ctrls.wrPerTurnAround::54-55            29      0.00%     99.93% # Writes before turning the bus around for reads
system.mem_ctrls.wrPerTurnAround::56-57            26      0.00%     99.93% # Writes before turning the bus around for reads
system.mem_ctrls.wrPerTurnAround::58-59            22      0.00%     99.94% # Writes before turning the bus around for reads
system.mem_ctrls.wrPerTurnAround::60-61            34      0.01%     99.94% # Writes before turning the bus around for reads
system.mem_ctrls.wrPerTurnAround::62-63            28      0.00%     99.95% # Writes before turning the bus around for reads
system.mem_ctrls.wrPerTurnAround::64-65           138      0.02%     99.97% # Writes before turning the bus around for reads
system.mem_ctrls.wrPerTurnAround::66-67            47      0.01%     99.98% # Writes before turning the bus around for reads
system.mem_ctrls.wrPerTurnAround::68-69            25      0.00%     99.98% # Writes before turning the bus around for reads
system.mem_ctrls.wrPerTurnAround::70-71            25      0.00%     99.98% # Writes before turning the bus around for reads
system.mem_ctrls.wrPerTurnAround::72-73            18      0.00%     99.99% # Writes before turning the bus around for reads
system.mem_ctrls.wrPerTurnAround::74-75            22      0.00%     99.99% # Writes before turning the bus around for reads
system.mem_ctrls.wrPerTurnAround::76-77            11      0.00%     99.99% # Writes before turning the bus around for reads
system.mem_ctrls.wrPerTurnAround::78-79            11      0.00%     99.99% # Writes before turning the bus around for reads
system.mem_ctrls.wrPerTurnAround::80-81             6      0.00%     99.99% # Writes before turning the bus around for reads
system.mem_ctrls.wrPerTurnAround::82-83            10      0.00%    100.00% # Writes before turning the bus around for reads
system.mem_ctrls.wrPerTurnAround::84-85             1      0.00%    100.00% # Writes before turning the bus around for reads
system.mem_ctrls.wrPerTurnAround::86-87             1      0.00%    100.00% # Writes before turning the bus around for reads
system.mem_ctrls.wrPerTurnAround::88-89             4      0.00%    100.00% # Writes before turning the bus around for reads
system.mem_ctrls.wrPerTurnAround::90-91            10      0.00%    100.00% # Writes before turning the bus around for reads
system.mem_ctrls.wrPerTurnAround::96-97             1      0.00%    100.00% # Writes before turning the bus around for reads
system.mem_ctrls.wrPerTurnAround::98-99             3      0.00%    100.00% # Writes before turning the bus around for reads
system.mem_ctrls.wrPerTurnAround::104-105            2      0.00%    100.00% # Writes before turning the bus around for reads
system.mem_ctrls.wrPerTurnAround::106-107            6      0.00%    100.00% # Writes before turning the bus around for reads
system.mem_ctrls.wrPerTurnAround::112-113            2      0.00%    100.00% # Writes before turning the bus around for reads
system.mem_ctrls.wrPerTurnAround::116-117            1      0.00%    100.00% # Writes before turning the bus around for reads
system.mem_ctrls.wrPerTurnAround::124-125            1      0.00%    100.00% # Writes before turning the bus around for reads
system.mem_ctrls.wrPerTurnAround::total        641190                       # Writes before turning the bus around for reads
system.mem_ctrls.totQLat                 817863761216                       # Total ticks spent queuing
system.mem_ctrls.totMemAccLat            1283917548716                       # Total ticks spent from burst creation until serviced by the DRAM
system.mem_ctrls.totBusLat               124281010000                       # Total ticks spent in databus transfers
system.mem_ctrls.avgQLat                     32903.81                       # Average queueing delay per DRAM burst
system.mem_ctrls.avgBusLat                    5000.00                       # Average bus latency per DRAM burst
system.mem_ctrls.avgMemAccLat                51653.81                       # Average memory access latency per DRAM burst
system.mem_ctrls.avgRdBW                         2.52                       # Average DRAM read bandwidth in MiByte/s
system.mem_ctrls.avgWrBW                         1.11                       # Average achieved write bandwidth in MiByte/s
system.mem_ctrls.avgRdBWSys                      2.53                       # Average system read bandwidth in MiByte/s
system.mem_ctrls.avgWrBWSys                      1.11                       # Average system write bandwidth in MiByte/s
system.mem_ctrls.peakBW                      12800.00                       # Theoretical peak bandwidth in MiByte/s
system.mem_ctrls.busUtil                         0.03                       # Data bus utilization in percentage
system.mem_ctrls.busUtilRead                     0.02                       # Data bus utilization in percentage for reads
system.mem_ctrls.busUtilWrite                    0.01                       # Data bus utilization in percentage for writes
system.mem_ctrls.avgRdQLen                       1.01                       # Average read queue length when enqueuing
system.mem_ctrls.avgWrQLen                      24.75                       # Average write queue length when enqueuing
system.mem_ctrls.readRowHits                 18835836                       # Number of row buffer hits during reads
system.mem_ctrls.writeRowHits                 6474406                       # Number of row buffer hits during writes
system.mem_ctrls.readRowHitRate                 75.78                       # Row buffer hit rate for reads
system.mem_ctrls.writeRowHitRate                59.32                       # Row buffer hit rate for writes
system.mem_ctrls.avgGap                   17627761.67                       # Average gap between requests
system.mem_ctrls.pageHitRate                    70.76                       # Row buffer hit rate, read and write combined
system.mem_ctrls_0.actEnergy              36927930060                       # Energy for activate commands per rank (pJ)
system.mem_ctrls_0.preEnergy              19627637535                       # Energy for precharge commands per rank (pJ)
system.mem_ctrls_0.readEnergy             87598767900                       # Energy for read commands per rank (pJ)
system.mem_ctrls_0.writeEnergy            28380445740                       # Energy for write commands per rank (pJ)
system.mem_ctrls_0.refreshEnergy         254370607920.000031                       # Energy for refresh commands per rank (pJ)
system.mem_ctrls_0.actBackEnergy         342229763010                       # Energy for active background per rank (pJ)
system.mem_ctrls_0.preBackEnergy           9652597920                       # Energy for precharge background per rank (pJ)
system.mem_ctrls_0.actPowerDownEnergy    788713751520                       # Energy for active power-down per rank (pJ)
system.mem_ctrls_0.prePowerDownEnergy    184372176000                       # Energy for precharge power-down per rank (pJ)
system.mem_ctrls_0.selfRefreshEnergy     150951998998500                       # Energy for self refresh per rank (pJ)
system.mem_ctrls_0.totalEnergy           152703914157195                       # Total energy per rank (pJ)
system.mem_ctrls_0.averagePower            241.667189                       # Core power per rank (mW)
system.mem_ctrls_0.totalIdleTime         631101164571994                       # Total Idle time Per DRAM Rank
system.mem_ctrls_0.memoryStateTime::IDLE  12354751995                       # Time in different power states
system.mem_ctrls_0.memoryStateTime::REF  107803344000                       # Time in different power states
system.mem_ctrls_0.memoryStateTime::SREF 628891396388750                       # Time in different power states
system.mem_ctrls_0.memoryStateTime::PRE_PDN 480136394167                       # Time in different power states
system.mem_ctrls_0.memoryStateTime::ACT  655577887261                       # Time in different power states
system.mem_ctrls_0.memoryStateTime::ACT_PDN 1729632191827                       # Time in different power states
system.mem_ctrls_1.actEnergy              37754535000                       # Energy for activate commands per rank (pJ)
system.mem_ctrls_1.preEnergy              20066996070                       # Energy for precharge commands per rank (pJ)
system.mem_ctrls_1.readEnergy             89874514380                       # Energy for read commands per rank (pJ)
system.mem_ctrls_1.writeEnergy            28589428440                       # Energy for write commands per rank (pJ)
system.mem_ctrls_1.refreshEnergy         254098937040.000031                       # Energy for refresh commands per rank (pJ)
system.mem_ctrls_1.actBackEnergy         344902326570                       # Energy for active background per rank (pJ)
system.mem_ctrls_1.preBackEnergy           9226215840                       # Energy for precharge background per rank (pJ)
system.mem_ctrls_1.actPowerDownEnergy    801771116580                       # Energy for active power-down per rank (pJ)
system.mem_ctrls_1.prePowerDownEnergy    176694730560                       # Energy for precharge power-down per rank (pJ)
system.mem_ctrls_1.selfRefreshEnergy     150947502679620                       # Energy for self refresh per rank (pJ)
system.mem_ctrls_1.totalEnergy           152710521970740                       # Total energy per rank (pJ)
system.mem_ctrls_1.averagePower            241.677646                       # Core power per rank (mW)
system.mem_ctrls_1.totalIdleTime         631096411943997                       # Total Idle time Per DRAM Rank
system.mem_ctrls_1.memoryStateTime::IDLE  11356541001                       # Time in different power states
system.mem_ctrls_1.memoryStateTime::REF  107674804000                       # Time in different power states
system.mem_ctrls_1.memoryStateTime::SREF 628878006791500                       # Time in different power states
system.mem_ctrls_1.memoryStateTime::PRE_PDN 460142814921                       # Time in different power states
system.mem_ctrls_1.memoryStateTime::ACT  661457635752                       # Time in different power states
system.mem_ctrls_1.memoryStateTime::ACT_PDN 1758262370826                       # Time in different power states
system.pwrStateResidencyTicks::UNDEFINED 631876900958000                       # Cumulative time (in ticks) in various power states
system.cf0.dma_read_full_pages                   4783                       # Number of full page size DMA reads (not PRD).
system.cf0.dma_read_bytes                    19591168                       # Number of bytes transfered via DMA reads (not PRD).
system.cf0.dma_read_txs                          4783                       # Number of DMA read transactions (not PRD).
system.cf0.dma_write_full_pages                  7273                       # Number of full page size DMA writes.
system.cf0.dma_write_bytes                   29792768                       # Number of bytes transfered via DMA writes.
system.cf0.dma_write_txs                         7276                       # Number of DMA write transactions.
system.cpu.branchPred.lookups              1371799907                       # Number of BP lookups
system.cpu.branchPred.condPredicted        1102553993                       # Number of conditional branches predicted
system.cpu.branchPred.condIncorrect          77771094                       # Number of conditional branches incorrect
system.cpu.branchPred.BTBLookups            858528992                       # Number of BTB lookups
system.cpu.branchPred.BTBHits               632181280                       # Number of BTB hits
system.cpu.branchPred.BTBCorrect                    0                       # Number of correct BTB predictions (this stat may not work properly.
system.cpu.branchPred.BTBHitPct             73.635403                       # BTB Hit Percentage
system.cpu.branchPred.usedRAS                77001346                       # Number of times the RAS was used to get a target.
system.cpu.branchPred.RASInCorrect             307601                       # Number of incorrect RAS predictions.
system.cpu.branchPred.indirectLookups        21936996                       # Number of indirect predictor lookups.
system.cpu.branchPred.indirectHits           16798728                       # Number of indirect target hits.
system.cpu.branchPred.indirectMisses          5138268                       # Number of indirect misses.
system.cpu.branchPredindirectMispredicted      1915866                       # Number of mispredicted indirect branches.
system.cpu_voltage_domain.voltage                   1                       # Voltage in Volts
system.cpu_clk_domain.clock                       500                       # Clock period in ticks
system.cpu.dstage2_mmu.stage2_tlb.walker.pwrStateResidencyTicks::UNDEFINED 631876900958000                       # Cumulative time (in ticks) in various power states
system.cpu.dstage2_mmu.stage2_tlb.walker.walks            0                       # Table walker walks requested
system.cpu.dstage2_mmu.stage2_tlb.walker.walkRequestOrigin_Requested::Data            0                       # Table walker requests started/completed, data/inst
system.cpu.dstage2_mmu.stage2_tlb.walker.walkRequestOrigin_Requested::Inst            0                       # Table walker requests started/completed, data/inst
system.cpu.dstage2_mmu.stage2_tlb.walker.walkRequestOrigin_Requested::total            0                       # Table walker requests started/completed, data/inst
system.cpu.dstage2_mmu.stage2_tlb.walker.walkRequestOrigin_Completed::Data            0                       # Table walker requests started/completed, data/inst
system.cpu.dstage2_mmu.stage2_tlb.walker.walkRequestOrigin_Completed::Inst            0                       # Table walker requests started/completed, data/inst
system.cpu.dstage2_mmu.stage2_tlb.walker.walkRequestOrigin_Completed::total            0                       # Table walker requests started/completed, data/inst
system.cpu.dstage2_mmu.stage2_tlb.walker.walkRequestOrigin::total            0                       # Table walker requests started/completed, data/inst
system.cpu.dstage2_mmu.stage2_tlb.inst_hits            0                       # ITB inst hits
system.cpu.dstage2_mmu.stage2_tlb.inst_misses            0                       # ITB inst misses
system.cpu.dstage2_mmu.stage2_tlb.read_hits            0                       # DTB read hits
system.cpu.dstage2_mmu.stage2_tlb.read_misses            0                       # DTB read misses
system.cpu.dstage2_mmu.stage2_tlb.write_hits            0                       # DTB write hits
system.cpu.dstage2_mmu.stage2_tlb.write_misses            0                       # DTB write misses
system.cpu.dstage2_mmu.stage2_tlb.flush_tlb            0                       # Number of times complete TLB was flushed
system.cpu.dstage2_mmu.stage2_tlb.flush_tlb_mva            0                       # Number of times TLB was flushed by MVA
system.cpu.dstage2_mmu.stage2_tlb.flush_tlb_mva_asid            0                       # Number of times TLB was flushed by MVA & ASID
system.cpu.dstage2_mmu.stage2_tlb.flush_tlb_asid            0                       # Number of times TLB was flushed by ASID
system.cpu.dstage2_mmu.stage2_tlb.flush_entries            0                       # Number of entries that have been flushed from TLB
system.cpu.dstage2_mmu.stage2_tlb.align_faults            0                       # Number of TLB faults due to alignment restrictions
system.cpu.dstage2_mmu.stage2_tlb.prefetch_faults            0                       # Number of TLB faults due to prefetch
system.cpu.dstage2_mmu.stage2_tlb.domain_faults            0                       # Number of TLB faults due to domain restrictions
system.cpu.dstage2_mmu.stage2_tlb.perms_faults            0                       # Number of TLB faults due to permissions restrictions
system.cpu.dstage2_mmu.stage2_tlb.read_accesses            0                       # DTB read accesses
system.cpu.dstage2_mmu.stage2_tlb.write_accesses            0                       # DTB write accesses
system.cpu.dstage2_mmu.stage2_tlb.inst_accesses            0                       # ITB inst accesses
system.cpu.dstage2_mmu.stage2_tlb.hits              0                       # DTB hits
system.cpu.dstage2_mmu.stage2_tlb.misses            0                       # DTB misses
system.cpu.dstage2_mmu.stage2_tlb.accesses            0                       # DTB accesses
system.cpu.dtb.walker.pwrStateResidencyTicks::UNDEFINED 631876900958000                       # Cumulative time (in ticks) in various power states
system.cpu.dtb.walker.walks                   9825023                       # Table walker walks requested
system.cpu.dtb.walker.walksLong               9825023                       # Table walker walks initiated with long descriptors
system.cpu.dtb.walker.walksLongTerminationLevel::Level2        47451                       # Level at which table walker walks with long descriptors terminate
system.cpu.dtb.walker.walksLongTerminationLevel::Level3      1373334                       # Level at which table walker walks with long descriptors terminate
system.cpu.dtb.walker.walksSquashedBefore      1328346                       # Table walks squashed before starting
system.cpu.dtb.walker.walkWaitTime::samples      8496677                       # Table walker wait (enqueue to first request) latency
system.cpu.dtb.walker.walkWaitTime::mean   382.452105                       # Table walker wait (enqueue to first request) latency
system.cpu.dtb.walker.walkWaitTime::stdev  6069.126258                       # Table walker wait (enqueue to first request) latency
system.cpu.dtb.walker.walkWaitTime::0-65535      8483625     99.85%     99.85% # Table walker wait (enqueue to first request) latency
system.cpu.dtb.walker.walkWaitTime::65536-131071         9955      0.12%     99.96% # Table walker wait (enqueue to first request) latency
system.cpu.dtb.walker.walkWaitTime::131072-196607         1904      0.02%     99.99% # Table walker wait (enqueue to first request) latency
system.cpu.dtb.walker.walkWaitTime::196608-262143          544      0.01%     99.99% # Table walker wait (enqueue to first request) latency
system.cpu.dtb.walker.walkWaitTime::262144-327679          198      0.00%     99.99% # Table walker wait (enqueue to first request) latency
system.cpu.dtb.walker.walkWaitTime::327680-393215          121      0.00%    100.00% # Table walker wait (enqueue to first request) latency
system.cpu.dtb.walker.walkWaitTime::393216-458751           73      0.00%    100.00% # Table walker wait (enqueue to first request) latency
system.cpu.dtb.walker.walkWaitTime::458752-524287           33      0.00%    100.00% # Table walker wait (enqueue to first request) latency
system.cpu.dtb.walker.walkWaitTime::524288-589823           31      0.00%    100.00% # Table walker wait (enqueue to first request) latency
system.cpu.dtb.walker.walkWaitTime::589824-655359          189      0.00%    100.00% # Table walker wait (enqueue to first request) latency
system.cpu.dtb.walker.walkWaitTime::655360-720895            4      0.00%    100.00% # Table walker wait (enqueue to first request) latency
system.cpu.dtb.walker.walkWaitTime::total      8496677                       # Table walker wait (enqueue to first request) latency
system.cpu.dtb.walker.walkCompletionTime::samples      2575446                       # Table walker service (enqueue to completion) latency
system.cpu.dtb.walker.walkCompletionTime::mean 14606.104257                       # Table walker service (enqueue to completion) latency
system.cpu.dtb.walker.walkCompletionTime::gmean  6890.582846                       # Table walker service (enqueue to completion) latency
system.cpu.dtb.walker.walkCompletionTime::stdev 35860.840624                       # Table walker service (enqueue to completion) latency
system.cpu.dtb.walker.walkCompletionTime::0-131071      2546320     98.87%     98.87% # Table walker service (enqueue to completion) latency
system.cpu.dtb.walker.walkCompletionTime::131072-262143        20400      0.79%     99.66% # Table walker service (enqueue to completion) latency
system.cpu.dtb.walker.walkCompletionTime::262144-393215         4462      0.17%     99.83% # Table walker service (enqueue to completion) latency
system.cpu.dtb.walker.walkCompletionTime::393216-524287          782      0.03%     99.86% # Table walker service (enqueue to completion) latency
system.cpu.dtb.walker.walkCompletionTime::524288-655359         3377      0.13%    100.00% # Table walker service (enqueue to completion) latency
system.cpu.dtb.walker.walkCompletionTime::655360-786431           94      0.00%    100.00% # Table walker service (enqueue to completion) latency
system.cpu.dtb.walker.walkCompletionTime::786432-917503            4      0.00%    100.00% # Table walker service (enqueue to completion) latency
system.cpu.dtb.walker.walkCompletionTime::917504-1.04858e+06            1      0.00%    100.00% # Table walker service (enqueue to completion) latency
system.cpu.dtb.walker.walkCompletionTime::1.17965e+06-1.31072e+06            6      0.00%    100.00% # Table walker service (enqueue to completion) latency
system.cpu.dtb.walker.walkCompletionTime::total      2575446                       # Table walker service (enqueue to completion) latency
system.cpu.dtb.walker.walksPending::samples 5172434093364                       # Table walker pending requests distribution
system.cpu.dtb.walker.walksPending::mean     0.787088                       # Table walker pending requests distribution
system.cpu.dtb.walker.walksPending::stdev     0.434074                       # Table walker pending requests distribution
system.cpu.dtb.walker.walksPending::0-1  5167817925864     99.91%     99.91% # Table walker pending requests distribution
system.cpu.dtb.walker.walksPending::2-3    2576982000      0.05%     99.96% # Table walker pending requests distribution
system.cpu.dtb.walker.walksPending::4-5     886110000      0.02%     99.98% # Table walker pending requests distribution
system.cpu.dtb.walker.walksPending::6-7     398882500      0.01%     99.99% # Table walker pending requests distribution
system.cpu.dtb.walker.walksPending::8-9     555740000      0.01%    100.00% # Table walker pending requests distribution
system.cpu.dtb.walker.walksPending::10-11     60318000      0.00%    100.00% # Table walker pending requests distribution
system.cpu.dtb.walker.walksPending::12-13     38400000      0.00%    100.00% # Table walker pending requests distribution
system.cpu.dtb.walker.walksPending::14-15     97562500      0.00%    100.00% # Table walker pending requests distribution
system.cpu.dtb.walker.walksPending::16-17      1836500      0.00%    100.00% # Table walker pending requests distribution
system.cpu.dtb.walker.walksPending::18-19       170000      0.00%    100.00% # Table walker pending requests distribution
system.cpu.dtb.walker.walksPending::20-21         3000      0.00%    100.00% # Table walker pending requests distribution
system.cpu.dtb.walker.walksPending::22-23        66000      0.00%    100.00% # Table walker pending requests distribution
system.cpu.dtb.walker.walksPending::24-25         1500      0.00%    100.00% # Table walker pending requests distribution
system.cpu.dtb.walker.walksPending::26-27        95500      0.00%    100.00% # Table walker pending requests distribution
system.cpu.dtb.walker.walksPending::total 5172434093364                       # Table walker pending requests distribution
system.cpu.dtb.walker.walkPageSizes::4K       1373334     96.66%     96.66% # Table walker page sizes translated
system.cpu.dtb.walker.walkPageSizes::2M         47451      3.34%    100.00% # Table walker page sizes translated
system.cpu.dtb.walker.walkPageSizes::total      1420785                       # Table walker page sizes translated
system.cpu.dtb.walker.walkRequestOrigin_Requested::Data      9825023                       # Table walker requests started/completed, data/inst
system.cpu.dtb.walker.walkRequestOrigin_Requested::Inst            0                       # Table walker requests started/completed, data/inst
system.cpu.dtb.walker.walkRequestOrigin_Requested::total      9825023                       # Table walker requests started/completed, data/inst
system.cpu.dtb.walker.walkRequestOrigin_Completed::Data      1420785                       # Table walker requests started/completed, data/inst
system.cpu.dtb.walker.walkRequestOrigin_Completed::Inst            0                       # Table walker requests started/completed, data/inst
system.cpu.dtb.walker.walkRequestOrigin_Completed::total      1420785                       # Table walker requests started/completed, data/inst
system.cpu.dtb.walker.walkRequestOrigin::total     11245808                       # Table walker requests started/completed, data/inst
system.cpu.dtb.inst_hits                            0                       # ITB inst hits
system.cpu.dtb.inst_misses                          0                       # ITB inst misses
system.cpu.dtb.read_hits                   1750831328                       # DTB read hits
system.cpu.dtb.read_misses                    8883228                       # DTB read misses
system.cpu.dtb.write_hits                   590416263                       # DTB write hits
system.cpu.dtb.write_misses                    941795                       # DTB write misses
system.cpu.dtb.flush_tlb                           13                       # Number of times complete TLB was flushed
system.cpu.dtb.flush_tlb_mva                        6                       # Number of times TLB was flushed by MVA
system.cpu.dtb.flush_tlb_mva_asid              114854                       # Number of times TLB was flushed by MVA & ASID
system.cpu.dtb.flush_tlb_asid                     706                       # Number of times TLB was flushed by ASID
system.cpu.dtb.flush_entries                    92486                       # Number of entries that have been flushed from TLB
system.cpu.dtb.align_faults                      1226                       # Number of TLB faults due to alignment restrictions
system.cpu.dtb.prefetch_faults                  29767                       # Number of TLB faults due to prefetch
system.cpu.dtb.domain_faults                        0                       # Number of TLB faults due to domain restrictions
system.cpu.dtb.perms_faults                    186472                       # Number of TLB faults due to permissions restrictions
system.cpu.dtb.read_accesses               1759714556                       # DTB read accesses
system.cpu.dtb.write_accesses               591358058                       # DTB write accesses
system.cpu.dtb.inst_accesses                        0                       # ITB inst accesses
system.cpu.dtb.hits                        2341247591                       # DTB hits
system.cpu.dtb.misses                         9825023                       # DTB misses
system.cpu.dtb.accesses                    2351072614                       # DTB accesses
system.cpu.istage2_mmu.stage2_tlb.walker.pwrStateResidencyTicks::UNDEFINED 631876900958000                       # Cumulative time (in ticks) in various power states
system.cpu.istage2_mmu.stage2_tlb.walker.walks            0                       # Table walker walks requested
system.cpu.istage2_mmu.stage2_tlb.walker.walkRequestOrigin_Requested::Data            0                       # Table walker requests started/completed, data/inst
system.cpu.istage2_mmu.stage2_tlb.walker.walkRequestOrigin_Requested::Inst            0                       # Table walker requests started/completed, data/inst
system.cpu.istage2_mmu.stage2_tlb.walker.walkRequestOrigin_Requested::total            0                       # Table walker requests started/completed, data/inst
system.cpu.istage2_mmu.stage2_tlb.walker.walkRequestOrigin_Completed::Data            0                       # Table walker requests started/completed, data/inst
system.cpu.istage2_mmu.stage2_tlb.walker.walkRequestOrigin_Completed::Inst            0                       # Table walker requests started/completed, data/inst
system.cpu.istage2_mmu.stage2_tlb.walker.walkRequestOrigin_Completed::total            0                       # Table walker requests started/completed, data/inst
system.cpu.istage2_mmu.stage2_tlb.walker.walkRequestOrigin::total            0                       # Table walker requests started/completed, data/inst
system.cpu.istage2_mmu.stage2_tlb.inst_hits            0                       # ITB inst hits
system.cpu.istage2_mmu.stage2_tlb.inst_misses            0                       # ITB inst misses
system.cpu.istage2_mmu.stage2_tlb.read_hits            0                       # DTB read hits
system.cpu.istage2_mmu.stage2_tlb.read_misses            0                       # DTB read misses
system.cpu.istage2_mmu.stage2_tlb.write_hits            0                       # DTB write hits
system.cpu.istage2_mmu.stage2_tlb.write_misses            0                       # DTB write misses
system.cpu.istage2_mmu.stage2_tlb.flush_tlb            0                       # Number of times complete TLB was flushed
system.cpu.istage2_mmu.stage2_tlb.flush_tlb_mva            0                       # Number of times TLB was flushed by MVA
system.cpu.istage2_mmu.stage2_tlb.flush_tlb_mva_asid            0                       # Number of times TLB was flushed by MVA & ASID
system.cpu.istage2_mmu.stage2_tlb.flush_tlb_asid            0                       # Number of times TLB was flushed by ASID
system.cpu.istage2_mmu.stage2_tlb.flush_entries            0                       # Number of entries that have been flushed from TLB
system.cpu.istage2_mmu.stage2_tlb.align_faults            0                       # Number of TLB faults due to alignment restrictions
system.cpu.istage2_mmu.stage2_tlb.prefetch_faults            0                       # Number of TLB faults due to prefetch
system.cpu.istage2_mmu.stage2_tlb.domain_faults            0                       # Number of TLB faults due to domain restrictions
system.cpu.istage2_mmu.stage2_tlb.perms_faults            0                       # Number of TLB faults due to permissions restrictions
system.cpu.istage2_mmu.stage2_tlb.read_accesses            0                       # DTB read accesses
system.cpu.istage2_mmu.stage2_tlb.write_accesses            0                       # DTB write accesses
system.cpu.istage2_mmu.stage2_tlb.inst_accesses            0                       # ITB inst accesses
system.cpu.istage2_mmu.stage2_tlb.hits              0                       # DTB hits
system.cpu.istage2_mmu.stage2_tlb.misses            0                       # DTB misses
system.cpu.istage2_mmu.stage2_tlb.accesses            0                       # DTB accesses
system.cpu.itb.walker.pwrStateResidencyTicks::UNDEFINED 631876900958000                       # Cumulative time (in ticks) in various power states
system.cpu.itb.walker.walks                    415040                       # Table walker walks requested
system.cpu.itb.walker.walksLong                415040                       # Table walker walks initiated with long descriptors
system.cpu.itb.walker.walksLongTerminationLevel::Level2         6180                       # Level at which table walker walks with long descriptors terminate
system.cpu.itb.walker.walksLongTerminationLevel::Level3       287727                       # Level at which table walker walks with long descriptors terminate
system.cpu.itb.walker.walksSquashedBefore        27433                       # Table walks squashed before starting
system.cpu.itb.walker.walkWaitTime::samples       387607                       # Table walker wait (enqueue to first request) latency
system.cpu.itb.walker.walkWaitTime::mean   526.199217                       # Table walker wait (enqueue to first request) latency
system.cpu.itb.walker.walkWaitTime::stdev  6617.554853                       # Table walker wait (enqueue to first request) latency
system.cpu.itb.walker.walkWaitTime::0-32767       385383     99.43%     99.43% # Table walker wait (enqueue to first request) latency
system.cpu.itb.walker.walkWaitTime::32768-65535         1232      0.32%     99.74% # Table walker wait (enqueue to first request) latency
system.cpu.itb.walker.walkWaitTime::65536-98303          751      0.19%     99.94% # Table walker wait (enqueue to first request) latency
system.cpu.itb.walker.walkWaitTime::98304-131071           70      0.02%     99.96% # Table walker wait (enqueue to first request) latency
system.cpu.itb.walker.walkWaitTime::131072-163839           74      0.02%     99.97% # Table walker wait (enqueue to first request) latency
system.cpu.itb.walker.walkWaitTime::163840-196607           24      0.01%     99.98% # Table walker wait (enqueue to first request) latency
system.cpu.itb.walker.walkWaitTime::196608-229375           18      0.00%     99.99% # Table walker wait (enqueue to first request) latency
system.cpu.itb.walker.walkWaitTime::229376-262143           17      0.00%     99.99% # Table walker wait (enqueue to first request) latency
system.cpu.itb.walker.walkWaitTime::262144-294911           18      0.00%     99.99% # Table walker wait (enqueue to first request) latency
system.cpu.itb.walker.walkWaitTime::294912-327679           15      0.00%    100.00% # Table walker wait (enqueue to first request) latency
system.cpu.itb.walker.walkWaitTime::327680-360447            4      0.00%    100.00% # Table walker wait (enqueue to first request) latency
system.cpu.itb.walker.walkWaitTime::491520-524287            1      0.00%    100.00% # Table walker wait (enqueue to first request) latency
system.cpu.itb.walker.walkWaitTime::total       387607                       # Table walker wait (enqueue to first request) latency
system.cpu.itb.walker.walkCompletionTime::samples       321340                       # Table walker service (enqueue to completion) latency
system.cpu.itb.walker.walkCompletionTime::mean 15221.733700                       # Table walker service (enqueue to completion) latency
system.cpu.itb.walker.walkCompletionTime::gmean  6811.154083                       # Table walker service (enqueue to completion) latency
system.cpu.itb.walker.walkCompletionTime::stdev 33011.168472                       # Table walker service (enqueue to completion) latency
system.cpu.itb.walker.walkCompletionTime::0-65535       296185     92.17%     92.17% # Table walker service (enqueue to completion) latency
system.cpu.itb.walker.walkCompletionTime::65536-131071        20773      6.46%     98.64% # Table walker service (enqueue to completion) latency
system.cpu.itb.walker.walkCompletionTime::131072-196607         2837      0.88%     99.52% # Table walker service (enqueue to completion) latency
system.cpu.itb.walker.walkCompletionTime::196608-262143          840      0.26%     99.78% # Table walker service (enqueue to completion) latency
system.cpu.itb.walker.walkCompletionTime::262144-327679          329      0.10%     99.88% # Table walker service (enqueue to completion) latency
system.cpu.itb.walker.walkCompletionTime::327680-393215          197      0.06%     99.94% # Table walker service (enqueue to completion) latency
system.cpu.itb.walker.walkCompletionTime::393216-458751           76      0.02%     99.97% # Table walker service (enqueue to completion) latency
system.cpu.itb.walker.walkCompletionTime::458752-524287           19      0.01%     99.97% # Table walker service (enqueue to completion) latency
system.cpu.itb.walker.walkCompletionTime::524288-589823            7      0.00%     99.98% # Table walker service (enqueue to completion) latency
system.cpu.itb.walker.walkCompletionTime::589824-655359           77      0.02%    100.00% # Table walker service (enqueue to completion) latency
system.cpu.itb.walker.walkCompletionTime::total       321340                       # Table walker service (enqueue to completion) latency
system.cpu.itb.walker.walksPending::samples 1543204526744                       # Table walker pending requests distribution
system.cpu.itb.walker.walksPending::mean     0.958612                       # Table walker pending requests distribution
system.cpu.itb.walker.walksPending::stdev     0.199564                       # Table walker pending requests distribution
system.cpu.itb.walker.walksPending::0     63985901152      4.15%      4.15% # Table walker pending requests distribution
system.cpu.itb.walker.walksPending::1    1479104430592     95.85%     99.99% # Table walker pending requests distribution
system.cpu.itb.walker.walksPending::2       113381000      0.01%    100.00% # Table walker pending requests distribution
system.cpu.itb.walker.walksPending::3          781500      0.00%    100.00% # Table walker pending requests distribution
system.cpu.itb.walker.walksPending::4           11000      0.00%    100.00% # Table walker pending requests distribution
system.cpu.itb.walker.walksPending::5            9500      0.00%    100.00% # Table walker pending requests distribution
system.cpu.itb.walker.walksPending::6           12000      0.00%    100.00% # Table walker pending requests distribution
system.cpu.itb.walker.walksPending::total 1543204526744                       # Table walker pending requests distribution
system.cpu.itb.walker.walkPageSizes::4K        287727     97.90%     97.90% # Table walker page sizes translated
system.cpu.itb.walker.walkPageSizes::2M          6180      2.10%    100.00% # Table walker page sizes translated
system.cpu.itb.walker.walkPageSizes::total       293907                       # Table walker page sizes translated
system.cpu.itb.walker.walkRequestOrigin_Requested::Data            0                       # Table walker requests started/completed, data/inst
system.cpu.itb.walker.walkRequestOrigin_Requested::Inst       415040                       # Table walker requests started/completed, data/inst
system.cpu.itb.walker.walkRequestOrigin_Requested::total       415040                       # Table walker requests started/completed, data/inst
system.cpu.itb.walker.walkRequestOrigin_Completed::Data            0                       # Table walker requests started/completed, data/inst
system.cpu.itb.walker.walkRequestOrigin_Completed::Inst       293907                       # Table walker requests started/completed, data/inst
system.cpu.itb.walker.walkRequestOrigin_Completed::total       293907                       # Table walker requests started/completed, data/inst
system.cpu.itb.walker.walkRequestOrigin::total       708947                       # Table walker requests started/completed, data/inst
system.cpu.itb.inst_hits                   2752363170                       # ITB inst hits
system.cpu.itb.inst_misses                     415040                       # ITB inst misses
system.cpu.itb.read_hits                            0                       # DTB read hits
system.cpu.itb.read_misses                          0                       # DTB read misses
system.cpu.itb.write_hits                           0                       # DTB write hits
system.cpu.itb.write_misses                         0                       # DTB write misses
system.cpu.itb.flush_tlb                           13                       # Number of times complete TLB was flushed
system.cpu.itb.flush_tlb_mva                        6                       # Number of times TLB was flushed by MVA
system.cpu.itb.flush_tlb_mva_asid              114854                       # Number of times TLB was flushed by MVA & ASID
system.cpu.itb.flush_tlb_asid                     706                       # Number of times TLB was flushed by ASID
system.cpu.itb.flush_entries                    42043                       # Number of entries that have been flushed from TLB
system.cpu.itb.align_faults                         0                       # Number of TLB faults due to alignment restrictions
system.cpu.itb.prefetch_faults                      0                       # Number of TLB faults due to prefetch
system.cpu.itb.domain_faults                        0                       # Number of TLB faults due to domain restrictions
system.cpu.itb.perms_faults                    677223                       # Number of TLB faults due to permissions restrictions
system.cpu.itb.read_accesses                        0                       # DTB read accesses
system.cpu.itb.write_accesses                       0                       # DTB write accesses
system.cpu.itb.inst_accesses               2752778210                       # ITB inst accesses
system.cpu.itb.hits                        2752363170                       # DTB hits
system.cpu.itb.misses                          415040                       # DTB misses
system.cpu.itb.accesses                    2752778210                       # DTB accesses
system.cpu.numPwrStateTransitions               43218                       # Number of power state transitions
system.cpu.pwrStateClkGateDist::samples         21609                       # Distribution of time spent in the clock gated state
system.cpu.pwrStateClkGateDist::mean     29004428386.432644                       # Distribution of time spent in the clock gated state
system.cpu.pwrStateClkGateDist::stdev    162288319239.937103                       # Distribution of time spent in the clock gated state
system.cpu.pwrStateClkGateDist::underflows        20639     95.51%     95.51% # Distribution of time spent in the clock gated state
system.cpu.pwrStateClkGateDist::1000-5e+10          213      0.99%     96.50% # Distribution of time spent in the clock gated state
system.cpu.pwrStateClkGateDist::5e+10-1e+11           28      0.13%     96.63% # Distribution of time spent in the clock gated state
system.cpu.pwrStateClkGateDist::1e+11-1.5e+11           22      0.10%     96.73% # Distribution of time spent in the clock gated state
system.cpu.pwrStateClkGateDist::1.5e+11-2e+11           22      0.10%     96.83% # Distribution of time spent in the clock gated state
system.cpu.pwrStateClkGateDist::2e+11-2.5e+11           21      0.10%     96.93% # Distribution of time spent in the clock gated state
system.cpu.pwrStateClkGateDist::2.5e+11-3e+11           13      0.06%     96.99% # Distribution of time spent in the clock gated state
system.cpu.pwrStateClkGateDist::3e+11-3.5e+11           12      0.06%     97.04% # Distribution of time spent in the clock gated state
system.cpu.pwrStateClkGateDist::3.5e+11-4e+11            4      0.02%     97.06% # Distribution of time spent in the clock gated state
system.cpu.pwrStateClkGateDist::4e+11-4.5e+11            8      0.04%     97.10% # Distribution of time spent in the clock gated state
system.cpu.pwrStateClkGateDist::4.5e+11-5e+11            5      0.02%     97.12% # Distribution of time spent in the clock gated state
system.cpu.pwrStateClkGateDist::5e+11-5.5e+11            3      0.01%     97.14% # Distribution of time spent in the clock gated state
system.cpu.pwrStateClkGateDist::5.5e+11-6e+11            5      0.02%     97.16% # Distribution of time spent in the clock gated state
system.cpu.pwrStateClkGateDist::6e+11-6.5e+11            3      0.01%     97.17% # Distribution of time spent in the clock gated state
system.cpu.pwrStateClkGateDist::6.5e+11-7e+11           10      0.05%     97.22% # Distribution of time spent in the clock gated state
system.cpu.pwrStateClkGateDist::7e+11-7.5e+11           12      0.06%     97.27% # Distribution of time spent in the clock gated state
system.cpu.pwrStateClkGateDist::7.5e+11-8e+11           21      0.10%     97.37% # Distribution of time spent in the clock gated state
system.cpu.pwrStateClkGateDist::8e+11-8.5e+11           20      0.09%     97.46% # Distribution of time spent in the clock gated state
system.cpu.pwrStateClkGateDist::8.5e+11-9e+11           21      0.10%     97.56% # Distribution of time spent in the clock gated state
system.cpu.pwrStateClkGateDist::9e+11-9.5e+11           21      0.10%     97.66% # Distribution of time spent in the clock gated state
system.cpu.pwrStateClkGateDist::9.5e+11-1e+12          506      2.34%    100.00% # Distribution of time spent in the clock gated state
system.cpu.pwrStateClkGateDist::min_value          501                       # Distribution of time spent in the clock gated state
system.cpu.pwrStateClkGateDist::max_value 999974551240                       # Distribution of time spent in the clock gated state
system.cpu.pwrStateClkGateDist::total           21609                       # Distribution of time spent in the clock gated state
system.cpu.pwrStateResidencyTicks::ON    5120207955577                       # Cumulative time (in ticks) in various power states
system.cpu.pwrStateResidencyTicks::CLK_GATED 626756693002423                       # Cumulative time (in ticks) in various power states
system.cpu.numCycles                      10240417304                       # number of cpu cycles simulated
system.cpu.numWorkItemsStarted                      0                       # number of work items this cpu started
system.cpu.numWorkItemsCompleted                    0                       # number of work items this cpu completed
system.cpu.fetch.icacheStallCycles         3380240634                       # Number of cycles fetch is stalled on an Icache miss
system.cpu.fetch.Insts                     8359559144                       # Number of instructions fetch has processed
system.cpu.fetch.Branches                  1371799907                       # Number of branches that fetch encountered
system.cpu.fetch.predictedBranches          725981354                       # Number of branches that fetch has predicted taken
system.cpu.fetch.Cycles                    6246161286                       # Number of cycles fetch has run and was not squashing or blocked
system.cpu.fetch.SquashCycles               157975032                       # Number of cycles fetch has spent squashing
system.cpu.fetch.TlbCycles                    5309654                       # Number of cycles fetch has spent waiting for tlb
system.cpu.fetch.MiscStallCycles             13039346                       # Number of cycles fetch has spent waiting on interrupts, or bad addresses, or out of MSHRs
system.cpu.fetch.PendingTrapStallCycles      15650885                       # Number of stall cycles due to pending traps
system.cpu.fetch.PendingQuiesceStallCycles      3072299                       # Number of stall cycles due to pending quiesce instructions
system.cpu.fetch.IcacheWaitRetryStallCycles     25738915                       # Number of stall cycles due to full MSHR
system.cpu.fetch.CacheLines                2751623774                       # Number of cache lines fetched
system.cpu.fetch.IcacheSquashes              37450153                       # Number of outstanding Icache misses that were squashed
system.cpu.fetch.ItlbSquashes                   74997                       # Number of outstanding ITLB misses that were squashed
system.cpu.fetch.rateDist::samples         9768200535                       # Number of instructions fetched each cycle (Total)
system.cpu.fetch.rateDist::mean              0.910292                       # Number of instructions fetched each cycle (Total)
system.cpu.fetch.rateDist::stdev             1.190724                       # Number of instructions fetched each cycle (Total)
system.cpu.fetch.rateDist::underflows               0      0.00%      0.00% # Number of instructions fetched each cycle (Total)
system.cpu.fetch.rateDist::0               5411606073     55.40%     55.40% # Number of instructions fetched each cycle (Total)
system.cpu.fetch.rateDist::1               1811903985     18.55%     73.95% # Number of instructions fetched each cycle (Total)
system.cpu.fetch.rateDist::2                554056898      5.67%     79.62% # Number of instructions fetched each cycle (Total)
system.cpu.fetch.rateDist::3               1990633579     20.38%    100.00% # Number of instructions fetched each cycle (Total)
system.cpu.fetch.rateDist::overflows                0      0.00%    100.00% # Number of instructions fetched each cycle (Total)
system.cpu.fetch.rateDist::min_value                0                       # Number of instructions fetched each cycle (Total)
system.cpu.fetch.rateDist::max_value                3                       # Number of instructions fetched each cycle (Total)
system.cpu.fetch.rateDist::total           9768200535                       # Number of instructions fetched each cycle (Total)
system.cpu.fetch.branchRate                  0.133959                       # Number of branch fetches per cycle
system.cpu.fetch.rate                        0.816330                       # Number of inst fetches per cycle
system.cpu.decode.IdleCycles               2671742630                       # Number of cycles decode is idle
system.cpu.decode.BlockedCycles            3327416976                       # Number of cycles decode is blocked
system.cpu.decode.RunCycles                3266456966                       # Number of cycles decode is running
system.cpu.decode.UnblockCycles             433304367                       # Number of cycles decode is unblocking
[...]
system.ruby.Directory_Controller.DMA_ACK::total         8854                      
system.ruby.Directory_Controller.Data    |        9545    100.00%    100.00% |           0      0.00%    100.00%
system.ruby.Directory_Controller.Data::total         9545                      
system.ruby.Directory_Controller.I.GETX  |     6181917    100.00%    100.00% |           0      0.00%    100.00%
system.ruby.Directory_Controller.I.GETX::total      6181917                      
system.ruby.Directory_Controller.I.GETS  |     5193912    100.00%    100.00% |           9      0.00%    100.00%
system.ruby.Directory_Controller.I.GETS::total      5193921                      
system.ruby.Directory_Controller.I.Memory_Ack |    10461290    100.00%    100.00% |           0      0.00%    100.00%
system.ruby.Directory_Controller.I.Memory_Ack::total     10461290                      
system.ruby.Directory_Controller.I.DMA_READ |       11569    100.00%    100.00% |           0      0.00%    100.00%
system.ruby.Directory_Controller.I.DMA_READ::total        11569                      
system.ruby.Directory_Controller.I.DMA_WRITE |      447366    100.00%    100.00% |           0      0.00%    100.00%
system.ruby.Directory_Controller.I.DMA_WRITE::total       447366                      
system.ruby.Directory_Controller.S.GETX  |     4281035    100.00%    100.00% |           0      0.00%    100.00%
system.ruby.Directory_Controller.S.GETX::total      4281035                      
system.ruby.Directory_Controller.S.GETS  |     9262193    100.00%    100.00% |           0      0.00%    100.00%
system.ruby.Directory_Controller.S.GETS::total      9262193                      
system.ruby.Directory_Controller.S.DMA_READ |      292622    100.00%    100.00% |           0      0.00%    100.00%
system.ruby.Directory_Controller.S.DMA_READ::total       292622                      
system.ruby.Directory_Controller.S.DMA_WRITE |        8601    100.00%    100.00% |           0      0.00%    100.00%
system.ruby.Directory_Controller.S.DMA_WRITE::total         8601                      
system.ruby.Directory_Controller.M.PUTX  |    10449417    100.00%    100.00% |           0      0.00%    100.00%
system.ruby.Directory_Controller.M.PUTX::total     10449417                      
system.ruby.Directory_Controller.M.DMA_READ |        8854    100.00%    100.00% |           0      0.00%    100.00%
system.ruby.Directory_Controller.M.DMA_READ::total         8854                      
system.ruby.Directory_Controller.M.DMA_WRITE |        9545    100.00%    100.00% |           0      0.00%    100.00%
system.ruby.Directory_Controller.M.DMA_WRITE::total         9545                      
system.ruby.Directory_Controller.IS.GETX |          10    100.00%    100.00% |           0      0.00%    100.00%
system.ruby.Directory_Controller.IS.GETX::total           10                      
system.ruby.Directory_Controller.IS.Unblock |     5193911    100.00%    100.00% |           9      0.00%    100.00%
system.ruby.Directory_Controller.IS.Unblock::total      5193920                      
system.ruby.Directory_Controller.IS.Memory_Data |     5193912    100.00%    100.00% |           9      0.00%    100.00%
system.ruby.Directory_Controller.IS.Memory_Data::total      5193921                      
system.ruby.Directory_Controller.IS.Memory_Ack |        1053    100.00%    100.00% |           0      0.00%    100.00%
system.ruby.Directory_Controller.IS.Memory_Ack::total         1053                      
system.ruby.Directory_Controller.SS.GETX |           1    100.00%    100.00% |           0      0.00%    100.00%
system.ruby.Directory_Controller.SS.GETX::total            1                      
system.ruby.Directory_Controller.SS.Last_Unblock |     9262193    100.00%    100.00% |           0      0.00%    100.00%
system.ruby.Directory_Controller.SS.Last_Unblock::total      9262193                      
system.ruby.Directory_Controller.SS.Memory_Data |     9262193    100.00%    100.00% |           0      0.00%    100.00%
system.ruby.Directory_Controller.SS.Memory_Data::total      9262193                      
system.ruby.Directory_Controller.MM.Exclusive_Unblock |    10462952    100.00%    100.00% |           0      0.00%    100.00%
system.ruby.Directory_Controller.MM.Exclusive_Unblock::total     10462952                      
system.ruby.Directory_Controller.MM.Memory_Data |    10462952    100.00%    100.00% |           0      0.00%    100.00%
system.ruby.Directory_Controller.MM.Memory_Data::total     10462952                      
system.ruby.Directory_Controller.MM.Memory_Ack |         226    100.00%    100.00% |           0      0.00%    100.00%
system.ruby.Directory_Controller.MM.Memory_Ack::total          226                      
system.ruby.Directory_Controller.MI.Dirty_Writeback |    10449417    100.00%    100.00% |           0      0.00%    100.00%
system.ruby.Directory_Controller.MI.Dirty_Writeback::total     10449417                      
system.ruby.Directory_Controller.XI_M.Memory_Data |       11569    100.00%    100.00% |           0      0.00%    100.00%
system.ruby.Directory_Controller.XI_M.Memory_Data::total        11569                      
system.ruby.Directory_Controller.XI_U.Exclusive_Unblock |      465512    100.00%    100.00% |           0      0.00%    100.00%
system.ruby.Directory_Controller.XI_U.Exclusive_Unblock::total       465512                      
system.ruby.Directory_Controller.XI_U.Memory_Ack |      452360    100.00%    100.00% |           0      0.00%    100.00%
system.ruby.Directory_Controller.XI_U.Memory_Ack::total       452360                      
system.ruby.Directory_Controller.OI_D.Data |        9545    100.00%    100.00% |           0      0.00%    100.00%
system.ruby.Directory_Controller.OI_D.Data::total         9545                      
system.ruby.Directory_Controller.MD.DMA_ACK |        8854    100.00%    100.00% |           0      0.00%    100.00%
system.ruby.Directory_Controller.MD.DMA_ACK::total         8854                      
system.ruby.DMA_Controller.ReadRequest   |           0      0.00%      0.00% |     9406001    100.00%    100.00% |           0      0.00%    100.00%
system.ruby.DMA_Controller.ReadRequest::total      9406001                      
system.ruby.DMA_Controller.WriteRequest  |           0      0.00%      0.00% |    14317714    100.00%    100.00% |           0      0.00%    100.00%
system.ruby.DMA_Controller.WriteRequest::total     14317714                      
system.ruby.DMA_Controller.Data          |           0      0.00%      0.00% |      313045    100.00%    100.00% |           0      0.00%    100.00%
system.ruby.DMA_Controller.Data::total         313045                      
system.ruby.DMA_Controller.DMA_Ack       |           0      0.00%      0.00% |      465512    100.00%    100.00% |           0      0.00%    100.00%
system.ruby.DMA_Controller.DMA_Ack::total       465512                      
system.ruby.DMA_Controller.Inv_Ack       |           0      0.00%      0.00% |        8601    100.00%    100.00% |           0      0.00%    100.00%
system.ruby.DMA_Controller.Inv_Ack::total         8601                      
system.ruby.DMA_Controller.All_Acks      |           0      0.00%      0.00% |      465512    100.00%    100.00% |           0      0.00%    100.00%
system.ruby.DMA_Controller.All_Acks::total       465512                      
system.ruby.DMA_Controller.READY.ReadRequest |           0      0.00%      0.00% |      313045    100.00%    100.00% |           0      0.00%    100.00%
system.ruby.DMA_Controller.READY.ReadRequest::total       313045                      
system.ruby.DMA_Controller.READY.WriteRequest |           0      0.00%      0.00% |      465512    100.00%    100.00% |           0      0.00%    100.00%
system.ruby.DMA_Controller.READY.WriteRequest::total       465512                      
system.ruby.DMA_Controller.BUSY_RD.ReadRequest |           0      0.00%      0.00% |     9092956    100.00%    100.00% |           0      0.00%    100.00%
system.ruby.DMA_Controller.BUSY_RD.ReadRequest::total      9092956                      
system.ruby.DMA_Controller.BUSY_RD.Data  |           0      0.00%      0.00% |      313045    100.00%    100.00% |           0      0.00%    100.00%
system.ruby.DMA_Controller.BUSY_RD.Data::total       313045                      
system.ruby.DMA_Controller.BUSY_WR.WriteRequest |           0      0.00%      0.00% |    13852202    100.00%    100.00% |           0      0.00%    100.00%
system.ruby.DMA_Controller.BUSY_WR.WriteRequest::total     13852202                      
system.ruby.DMA_Controller.BUSY_WR.DMA_Ack |           0      0.00%      0.00% |      465512    100.00%    100.00% |           0      0.00%    100.00%
system.ruby.DMA_Controller.BUSY_WR.DMA_Ack::total       465512                      
system.ruby.DMA_Controller.BUSY_WR.Inv_Ack |           0      0.00%      0.00% |        8601    100.00%    100.00% |           0      0.00%    100.00%
system.ruby.DMA_Controller.BUSY_WR.Inv_Ack::total         8601                      
system.ruby.DMA_Controller.BUSY_WR.All_Acks |           0      0.00%      0.00% |      465512    100.00%    100.00% |           0      0.00%    100.00%
system.ruby.DMA_Controller.BUSY_WR.All_Acks::total       465512                      
system.ruby.L1Cache_Controller.Load        1605759957      0.00%      0.00%
system.ruby.L1Cache_Controller.Ifetch    18446744072166553600      0.00%      0.00%
system.ruby.L1Cache_Controller.Store        582987481      0.00%      0.00%
system.ruby.L1Cache_Controller.L1_Replacement     97536761      0.00%      0.00%
system.ruby.L1Cache_Controller.Fwd_GETX           397      0.00%      0.00%
system.ruby.L1Cache_Controller.Fwd_DMA           6306      0.00%      0.00%
system.ruby.L1Cache_Controller.Inv                  6      0.00%      0.00%
system.ruby.L1Cache_Controller.Data          54299220      0.00%      0.00%
system.ruby.L1Cache_Controller.Exclusive_Data     45406414      0.00%      0.00%
system.ruby.L1Cache_Controller.Writeback_Ack     39543629      0.00%      0.00%
system.ruby.L1Cache_Controller.Writeback_Ack_Data     57467038      0.00%      0.00%
system.ruby.L1Cache_Controller.All_acks      28393479      0.00%      0.00%
system.ruby.L1Cache_Controller.Use_Timeout     45406414      0.00%      0.00%
system.ruby.L1Cache_Controller.I.Load        31308904      0.00%      0.00%
system.ruby.L1Cache_Controller.I.Ifetch      40003252      0.00%      0.00%
system.ruby.L1Cache_Controller.I.Store       25700191      0.00%      0.00%
system.ruby.L1Cache_Controller.I.L1_Replacement          343      0.00%      0.00%
system.ruby.L1Cache_Controller.S.Load       360224822      0.00%      0.00%
system.ruby.L1Cache_Controller.S.Ifetch  18446744072125954048      0.00%      0.00%
system.ruby.L1Cache_Controller.S.Store        2693288      0.00%      0.00%
system.ruby.L1Cache_Controller.S.L1_Replacement     51605434      0.00%      0.00%
system.ruby.L1Cache_Controller.S.Inv                6      0.00%      0.00%
system.ruby.L1Cache_Controller.M.Load       153899425      0.00%      0.00%
system.ruby.L1Cache_Controller.M.Ifetch           443      0.00%      0.00%
system.ruby.L1Cache_Controller.M.Store        2474891      0.00%      0.00%
system.ruby.L1Cache_Controller.M.L1_Replacement     12312633      0.00%      0.00%
system.ruby.L1Cache_Controller.M.Fwd_GETX           26      0.00%      0.00%
system.ruby.L1Cache_Controller.M_W.Load      24876410      0.00%      0.00%
system.ruby.L1Cache_Controller.M_W.Ifetch          366      0.00%      0.00%
system.ruby.L1Cache_Controller.M_W.Store      2225327      0.00%      0.00%
system.ruby.L1Cache_Controller.M_W.L1_Replacement       132037      0.00%      0.00%
system.ruby.L1Cache_Controller.M_W.Use_Timeout     14787608      0.00%      0.00%
system.ruby.L1Cache_Controller.MM.Load     1031494363      0.00%      0.00%
system.ruby.L1Cache_Controller.MM.Store     509994368      0.00%      0.00%
system.ruby.L1Cache_Controller.MM.L1_Replacement     33092601      0.00%      0.00%
system.ruby.L1Cache_Controller.MM.Fwd_GETX          371      0.00%      0.00%
system.ruby.L1Cache_Controller.MM.Fwd_DMA         6306      0.00%      0.00%
system.ruby.L1Cache_Controller.MM_W.Load      3378632      0.00%      0.00%
system.ruby.L1Cache_Controller.MM_W.Store     39848442      0.00%      0.00%
system.ruby.L1Cache_Controller.MM_W.L1_Replacement       218410      0.00%      0.00%
system.ruby.L1Cache_Controller.MM_W.Use_Timeout     30618806      0.00%      0.00%
system.ruby.L1Cache_Controller.IM.L1_Replacement        34955      0.00%      0.00%
system.ruby.L1Cache_Controller.IM.Exclusive_Data     25700191      0.00%      0.00%
system.ruby.L1Cache_Controller.SM.L1_Replacement        53532      0.00%      0.00%
system.ruby.L1Cache_Controller.SM.Exclusive_Data      2693288      0.00%      0.00%
system.ruby.L1Cache_Controller.OM.L1_Replacement          804      0.00%      0.00%
system.ruby.L1Cache_Controller.OM.All_acks     28393479      0.00%      0.00%
system.ruby.L1Cache_Controller.IS.L1_Replacement        86012      0.00%      0.00%
system.ruby.L1Cache_Controller.IS.Data       54299220      0.00%      0.00%
system.ruby.L1Cache_Controller.IS.Exclusive_Data     17012935      0.00%      0.00%
system.ruby.L1Cache_Controller.SI.Load         486170      0.00%      0.00%
system.ruby.L1Cache_Controller.SI.Ifetch       596359      0.00%      0.00%
system.ruby.L1Cache_Controller.SI.Store          6396      0.00%      0.00%
system.ruby.L1Cache_Controller.SI.Writeback_Ack     39543629      0.00%      0.00%
system.ruby.L1Cache_Controller.SI.Writeback_Ack_Data     12061804      0.00%      0.00%
system.ruby.L1Cache_Controller.MI.Load          91231      0.00%      0.00%
system.ruby.L1Cache_Controller.MI.Ifetch           82      0.00%      0.00%
system.ruby.L1Cache_Controller.MI.Store         44578      0.00%      0.00%
system.ruby.L1Cache_Controller.MI.Writeback_Ack_Data     45405234      0.00%      0.00%
system.ruby.L2Cache_Controller.L1_GETS       71315837      0.00%      0.00%
system.ruby.L2Cache_Controller.L1_GETX       28396620      0.00%      0.00%
system.ruby.L2Cache_Controller.L1_PUTX       45405252      0.00%      0.00%
system.ruby.L2Cache_Controller.L1_PUTS_only     51605434      0.00%      0.00%
system.ruby.L2Cache_Controller.L1_PUTS             24      0.00%      0.00%
system.ruby.L2Cache_Controller.Fwd_GETX          9545      0.00%      0.00%
system.ruby.L2Cache_Controller.Fwd_DMA           8879      0.00%      0.00%
system.ruby.L2Cache_Controller.Inv               8601      0.00%      0.00%
system.ruby.L2Cache_Controller.IntAck               6      0.00%      0.00%
system.ruby.L2Cache_Controller.All_Acks      10462958      0.00%      0.00%
system.ruby.L2Cache_Controller.Data          24919066      0.00%      0.00%
system.ruby.L2Cache_Controller.Data_Exclusive          397      0.00%      0.00%
system.ruby.L2Cache_Controller.L1_WBCLEANDATA     12061804      0.00%      0.00%
system.ruby.L2Cache_Controller.L1_WBDIRTYDATA     45405234      0.00%      0.00%
system.ruby.L2Cache_Controller.Writeback_Ack     10449417      0.00%      0.00%
system.ruby.L2Cache_Controller.Unblock       93842849      0.00%      0.00%
system.ruby.L2Cache_Controller.Exclusive_Unblock     45406414      0.00%      0.00%
system.ruby.L2Cache_Controller.DmaAck            6306      0.00%      0.00%
system.ruby.L2Cache_Controller.L2_Replacement     22082579      0.00%      0.00%
system.ruby.L2Cache_Controller.NP.L1_GETS     14455966      0.00%      0.00%
system.ruby.L2Cache_Controller.NP.L1_GETX      7578155      0.00%      0.00%
system.ruby.L2Cache_Controller.NP.Inv            6949      0.00%      0.00%
system.ruby.L2Cache_Controller.I.L1_GETS          149      0.00%      0.00%
system.ruby.L2Cache_Controller.ILS.L1_GETX      2462558      0.00%      0.00%
system.ruby.L2Cache_Controller.ILS.L1_PUTS_only     12061805      0.00%      0.00%
system.ruby.L2Cache_Controller.ILS.Inv              6      0.00%      0.00%
system.ruby.L2Cache_Controller.ILX.L1_PUTX     45405234      0.00%      0.00%
system.ruby.L2Cache_Controller.ILX.Fwd_GETX          397      0.00%      0.00%
system.ruby.L2Cache_Controller.ILX.Fwd_DMA         6306      0.00%      0.00%
system.ruby.L2Cache_Controller.S.L1_GETS     39843106      0.00%      0.00%
system.ruby.L2Cache_Controller.S.L1_GETX       191509      0.00%      0.00%
system.ruby.L2Cache_Controller.S.Inv             1646      0.00%      0.00%
system.ruby.L2Cache_Controller.S.L2_Replacement     11564615      0.00%      0.00%
system.ruby.L2Cache_Controller.SLS.L1_GETX       230730      0.00%      0.00%
system.ruby.L2Cache_Controller.SLS.L1_PUTS_only     39543629      0.00%      0.00%
system.ruby.L2Cache_Controller.SLS.L2_Replacement        68481      0.00%      0.00%
system.ruby.L2Cache_Controller.M.L1_GETS     17012935      0.00%      0.00%
system.ruby.L2Cache_Controller.M.L1_GETX     17930527      0.00%      0.00%
system.ruby.L2Cache_Controller.M.Fwd_GETX         9148      0.00%      0.00%
system.ruby.L2Cache_Controller.M.Fwd_DMA         2548      0.00%      0.00%
system.ruby.L2Cache_Controller.M.L2_Replacement     10449417      0.00%      0.00%
system.ruby.L2Cache_Controller.IFGX.Data_Exclusive          397      0.00%      0.00%
system.ruby.L2Cache_Controller.IW.L1_GETS          615      0.00%      0.00%
system.ruby.L2Cache_Controller.IW.L1_GETX            1      0.00%      0.00%
system.ruby.L2Cache_Controller.IW.L1_WBCLEANDATA     12061804      0.00%      0.00%
system.ruby.L2Cache_Controller.SW.L1_GETS         2224      0.00%      0.00%
system.ruby.L2Cache_Controller.SW.L1_GETX           21      0.00%      0.00%
system.ruby.L2Cache_Controller.SW.Unblock     39543629      0.00%      0.00%
system.ruby.L2Cache_Controller.SW.L2_Replacement           66      0.00%      0.00%
system.ruby.L2Cache_Controller.ILXW.L1_GETS          175      0.00%      0.00%
system.ruby.L2Cache_Controller.ILXW.L1_GETX         1387      0.00%      0.00%
system.ruby.L2Cache_Controller.ILXW.Fwd_DMA           25      0.00%      0.00%
system.ruby.L2Cache_Controller.ILXW.L1_WBDIRTYDATA     45405234      0.00%      0.00%
system.ruby.L2Cache_Controller.IGS.L1_GETX           76      0.00%      0.00%
system.ruby.L2Cache_Controller.IGS.Data      14456114      0.00%      0.00%
system.ruby.L2Cache_Controller.IGS.Unblock     14456114      0.00%      0.00%
system.ruby.L2Cache_Controller.IGM.Data       7769664      0.00%      0.00%
system.ruby.L2Cache_Controller.IGMLS.Data      2693288      0.00%      0.00%
system.ruby.L2Cache_Controller.IGMO.All_Acks     10462952      0.00%      0.00%
system.ruby.L2Cache_Controller.IGMO.Exclusive_Unblock     10462952      0.00%      0.00%
system.ruby.L2Cache_Controller.II.IntAck            6      0.00%      0.00%
system.ruby.L2Cache_Controller.II.All_Acks            6      0.00%      0.00%
system.ruby.L2Cache_Controller.MM.Exclusive_Unblock     17930527      0.00%      0.00%
system.ruby.L2Cache_Controller.SS.L1_GETX           25      0.00%      0.00%
system.ruby.L2Cache_Controller.SS.L1_PUTS           24      0.00%      0.00%
system.ruby.L2Cache_Controller.SS.Unblock     39843106      0.00%      0.00%
system.ruby.L2Cache_Controller.OO.L1_PUTX           18      0.00%      0.00%
system.ruby.L2Cache_Controller.OO.Exclusive_Unblock     17012935      0.00%      0.00%
system.ruby.L2Cache_Controller.MI.L1_GETS          667      0.00%      0.00%
system.ruby.L2Cache_Controller.MI.L1_GETX         1631      0.00%      0.00%
system.ruby.L2Cache_Controller.MI.Writeback_Ack     10449417      0.00%      0.00%
system.ruby.L2Cache_Controller.ILXD.DmaAck         6306      0.00%      0.00%

---------- End Simulation Statistics   ----------