
---------- Begin Simulation Statistics ----------
sim_seconds                              56351.238555                       # Number of seconds simulated
sim_ticks                                56351238554503000                       # Number of ticks simulated
final_tick                               56351238554503000                       # Number of ticks from beginning of simulation (restored from checkpoints and never reset)
sim_freq                                 1000000000000                       # Frequency of simulated ticks
host_inst_rate                                 192886                       # Simulator instruction rate (inst/s)
host_op_rate                                   210142                       # Simulator op (including micro ops) rate (op/s)
host_tick_rate                           1294002328968                       # Simulator tick rate (ticks/s)
host_mem_usage                                 989516                       # Number of bytes of host memory used
host_seconds                                 43548.02                       # Real time elapsed on the host
sim_insts                                  8399824539                       # Number of instructions simulated
sim_ops                                    9151251857                       # Number of ops (including micro ops) simulated
system.voltage_domain.voltage                       1                       # Voltage in Volts
system.clk_domain.clock                          1000                       # Clock period in ticks
system.bootmem.pwrStateResidencyTicks::UNDEFINED 56351238554503000                       # Cumulative time (in ticks) in various power states
system.bootmem.bytes_read::cpu.inst               416                       # Number of bytes read from this memory
system.bootmem.bytes_read::cpu.data                44                       # Number of bytes read from this memory
system.bootmem.bytes_read::total                  460                       # Number of bytes read from this memory
system.bootmem.bytes_inst_read::cpu.inst          416                       # Number of instructions bytes read from this memory
system.bootmem.bytes_inst_read::total             416                       # Number of instructions bytes read from this memory
system.bootmem.num_reads::cpu.inst                 26                       # Number of read requests responded to by this memory
system.bootmem.num_reads::cpu.data                  6                       # Number of read requests responded to by this memory
system.bootmem.num_reads::total                    32                       # Number of read requests responded to by this memory
system.bootmem.bw_read::cpu.inst                    0                       # Total read bandwidth from this memory (bytes/s)
system.bootmem.bw_read::cpu.data                    0                       # Total read bandwidth from this memory (bytes/s)
system.bootmem.bw_read::total                       0                       # Total read bandwidth from this memory (bytes/s)
system.bootmem.bw_inst_read::cpu.inst               0                       # Instruction read bandwidth from this memory (bytes/s)
system.bootmem.bw_inst_read::total                  0                       # Instruction read bandwidth from this memory (bytes/s)
system.bootmem.bw_total::cpu.inst                   0                       # Total bandwidth to/from this memory (bytes/s)
system.bootmem.bw_total::cpu.data                   0                       # Total bandwidth to/from this memory (bytes/s)
system.bootmem.bw_total::total                      0                       # Total bandwidth to/from this memory (bytes/s)
system.mem_ctrls.pwrStateResidencyTicks::UNDEFINED 56351238554503000                       # Cumulative time (in ticks) in various power states
system.mem_ctrls.bytes_read::cpu.dtb.walker     42928960                       # Number of bytes read from this memory
system.mem_ctrls.bytes_read::cpu.itb.walker      9134016                       # Number of bytes read from this memory
system.mem_ctrls.bytes_read::cpu.inst      6293504704                       # Number of bytes read from this memory
system.mem_ctrls.bytes_read::cpu.data      2563554368                       # Number of bytes read from this memory
system.mem_ctrls.bytes_read::pci_ide         19692224                       # Number of bytes read from this memory
system.mem_ctrls.bytes_read::total         8928814272                       # Number of bytes read from this memory
system.mem_ctrls.bytes_inst_read::cpu.inst   6293504704                       # Number of instructions bytes read from this memory
system.mem_ctrls.bytes_inst_read::total    6293504704                       # Number of instructions bytes read from this memory
system.mem_ctrls.bytes_written::writebacks   2259048384                       # Number of bytes written to this memory
system.mem_ctrls.bytes_written::cpu.data        20580                       # Number of bytes written to this memory
system.mem_ctrls.bytes_written::total      2259068964                       # Number of bytes written to this memory
system.mem_ctrls.num_reads::cpu.dtb.walker       670765                       # Number of read requests responded to by this memory
system.mem_ctrls.num_reads::cpu.itb.walker       142719                       # Number of read requests responded to by this memory
system.mem_ctrls.num_reads::cpu.inst         98337544                       # Number of read requests responded to by this memory
system.mem_ctrls.num_reads::cpu.data         40055544                       # Number of read requests responded to by this memory
system.mem_ctrls.num_reads::pci_ide            307691                       # Number of read requests responded to by this memory
system.mem_ctrls.num_reads::total           139514263                       # Number of read requests responded to by this memory
system.mem_ctrls.num_writes::writebacks      35297631                       # Number of write requests responded to by this memory
system.mem_ctrls.num_writes::cpu.data            2573                       # Number of write requests responded to by this memory
system.mem_ctrls.num_writes::total           35300204                       # Number of write requests responded to by this memory
system.mem_ctrls.bw_read::cpu.dtb.walker          762                       # Total read bandwidth from this memory (bytes/s)
system.mem_ctrls.bw_read::cpu.itb.walker          162                       # Total read bandwidth from this memory (bytes/s)
system.mem_ctrls.bw_read::cpu.inst             111684                       # Total read bandwidth from this memory (bytes/s)
system.mem_ctrls.bw_read::cpu.data              45492                       # Total read bandwidth from this memory (bytes/s)
system.mem_ctrls.bw_read::pci_ide                 349                       # Total read bandwidth from this memory (bytes/s)
system.mem_ctrls.bw_read::total                158449                       # Total read bandwidth from this memory (bytes/s)
system.mem_ctrls.bw_inst_read::cpu.inst        111684                       # Instruction read bandwidth from this memory (bytes/s)
system.mem_ctrls.bw_inst_read::total           111684                       # Instruction read bandwidth from this memory (bytes/s)
system.mem_ctrls.bw_write::writebacks           40089                       # Write bandwidth from this memory (bytes/s)
system.mem_ctrls.bw_write::cpu.data                 0                       # Write bandwidth from this memory (bytes/s)
system.mem_ctrls.bw_write::total                40089                       # Write bandwidth from this memory (bytes/s)
system.mem_ctrls.bw_total::writebacks           40089                       # Total bandwidth to/from this memory (bytes/s)
system.mem_ctrls.bw_total::cpu.dtb.walker          762                       # Total bandwidth to/from this memory (bytes/s)
system.mem_ctrls.bw_total::cpu.itb.walker          162                       # Total bandwidth to/from this memory (bytes/s)
system.mem_ctrls.bw_total::cpu.inst            111684                       # Total bandwidth to/from this memory (bytes/s)
system.mem_ctrls.bw_total::cpu.data             45493                       # Total bandwidth to/from this memory (bytes/s)
system.mem_ctrls.bw_total::pci_ide                349                       # Total bandwidth to/from this memory (bytes/s)
system.mem_ctrls.bw_total::total               198538                       # Total bandwidth to/from this memory (bytes/s)
system.mem_ctrls.readReqs                   139514263                       # Number of read requests accepted
system.mem_ctrls.writeReqs                  158160464                       # Number of write requests accepted
system.mem_ctrls.readBursts                 139514263                       # Number of DRAM read bursts, including those serviced by the write queue
system.mem_ctrls.writeBursts                158160464                       # Number of DRAM write bursts, including those merged in the write queue
system.mem_ctrls.bytesReadDRAM             7977808448                       # Total number of bytes read from DRAM
system.mem_ctrls.bytesReadWrQ               951104384                       # Total number of bytes read from write queue
system.mem_ctrls.bytesWritten              9688322304                       # Total number of bytes written to DRAM
system.mem_ctrls.bytesReadSys              8928814272                       # Total read bytes from the system interface side
system.mem_ctrls.bytesWrittenSys          10122125604                       # Total written bytes from the system interface side
system.mem_ctrls.servicedByWrQ               14861006                       # Number of DRAM read bursts serviced by the write queue
system.mem_ctrls.mergedWrBursts               6780405                       # Number of DRAM write bursts merged with an existing one
system.mem_ctrls.neitherReadNorWriteReqs            0                       # Number of requests that are neither read nor write
system.mem_ctrls.perBankRdBursts::0           7674746                       # Per bank write bursts
system.mem_ctrls.perBankRdBursts::1           7281332                       # Per bank write bursts
system.mem_ctrls.perBankRdBursts::2           8270893                       # Per bank write bursts
system.mem_ctrls.perBankRdBursts::3           5680167                       # Per bank write bursts
system.mem_ctrls.perBankRdBursts::4           4235183                       # Per bank write bursts
system.mem_ctrls.perBankRdBursts::5          11616802                       # Per bank write bursts
system.mem_ctrls.perBankRdBursts::6           6505305                       # Per bank write bursts
system.mem_ctrls.perBankRdBursts::7           6730864                       # Per bank write bursts
system.mem_ctrls.perBankRdBursts::8           5848806                       # Per bank write bursts
system.mem_ctrls.perBankRdBursts::9           6792912                       # Per bank write bursts
system.mem_ctrls.perBankRdBursts::10         11041151                       # Per bank write bursts
system.mem_ctrls.perBankRdBursts::11          6344189                       # Per bank write bursts
system.mem_ctrls.perBankRdBursts::12         11891847                       # Per bank write bursts
system.mem_ctrls.perBankRdBursts::13          6707767                       # Per bank write bursts
system.mem_ctrls.perBankRdBursts::14         12337600                       # Per bank write bursts
system.mem_ctrls.perBankRdBursts::15          5693693                       # Per bank write bursts
system.mem_ctrls.perBankWrBursts::0           8271851                       # Per bank write bursts
system.mem_ctrls.perBankWrBursts::1           9605457                       # Per bank write bursts
system.mem_ctrls.perBankWrBursts::2           9065424                       # Per bank write bursts
system.mem_ctrls.perBankWrBursts::3           7812675                       # Per bank write bursts
system.mem_ctrls.perBankWrBursts::4           4891777                       # Per bank write bursts
system.mem_ctrls.perBankWrBursts::5          15585879                       # Per bank write bursts
system.mem_ctrls.perBankWrBursts::6           7239444                       # Per bank write bursts
system.mem_ctrls.perBankWrBursts::7           9007211                       # Per bank write bursts
system.mem_ctrls.perBankWrBursts::8           6403749                       # Per bank write bursts
system.mem_ctrls.perBankWrBursts::9           9390896                       # Per bank write bursts
system.mem_ctrls.perBankWrBursts::10         11778224                       # Per bank write bursts
system.mem_ctrls.perBankWrBursts::11          8563506                       # Per bank write bursts
system.mem_ctrls.perBankWrBursts::12         12643935                       # Per bank write bursts
system.mem_ctrls.perBankWrBursts::13          9586849                       # Per bank write bursts
system.mem_ctrls.perBankWrBursts::14         13424052                       # Per bank write bursts
system.mem_ctrls.perBankWrBursts::15          8109107                       # Per bank write bursts
system.mem_ctrls.numRdRetry                         0                       # Number of times read queue was full causing retry
system.mem_ctrls.numWrRetry                     30067                       # Number of times write queue was full causing retry
system.mem_ctrls.totGap                  56351238614005976                       # Total gap between requests
system.mem_ctrls.readPktSize::0                     0                       # Read request sizes (log2)
system.mem_ctrls.readPktSize::1                     0                       # Read request sizes (log2)
system.mem_ctrls.readPktSize::2                     0                       # Read request sizes (log2)
system.mem_ctrls.readPktSize::3                     8                       # Read request sizes (log2)
system.mem_ctrls.readPktSize::4                  2044                       # Read request sizes (log2)
system.mem_ctrls.readPktSize::5                     0                       # Read request sizes (log2)
system.mem_ctrls.readPktSize::6             139512211                       # Read request sizes (log2)
system.mem_ctrls.writePktSize::0                    0                       # Write request sizes (log2)
system.mem_ctrls.writePktSize::1                    0                       # Write request sizes (log2)
system.mem_ctrls.writePktSize::2                    1                       # Write request sizes (log2)
system.mem_ctrls.writePktSize::3                 2572                       # Write request sizes (log2)
system.mem_ctrls.writePktSize::4                    0                       # Write request sizes (log2)
system.mem_ctrls.writePktSize::5                    0                       # Write request sizes (log2)
system.mem_ctrls.writePktSize::6            158157891                       # Write request sizes (log2)
system.mem_ctrls.rdQLenPdf::0                98054098                       # What read queue length does an incoming req see
system.mem_ctrls.rdQLenPdf::1                21371217                       # What read queue length does an incoming req see
system.mem_ctrls.rdQLenPdf::2                 3650080                       # What read queue length does an incoming req see
system.mem_ctrls.rdQLenPdf::3                  828435                       # What read queue length does an incoming req see
system.mem_ctrls.rdQLenPdf::4                  333511                       # What read queue length does an incoming req see
system.mem_ctrls.rdQLenPdf::5                  167914                       # What read queue length does an incoming req see
system.mem_ctrls.rdQLenPdf::6                   29024                       # What read queue length does an incoming req see
system.mem_ctrls.rdQLenPdf::7                   22178                       # What read queue length does an incoming req see
system.mem_ctrls.rdQLenPdf::8                   35147                       # What read queue length does an incoming req see
system.mem_ctrls.rdQLenPdf::9                   44502                       # What read queue length does an incoming req see
system.mem_ctrls.rdQLenPdf::10                  27748                       # What read queue length does an incoming req see
system.mem_ctrls.rdQLenPdf::11                  19289                       # What read queue length does an incoming req see
system.mem_ctrls.rdQLenPdf::12                  12359                       # What read queue length does an incoming req see
system.mem_ctrls.rdQLenPdf::13                  10291                       # What read queue length does an incoming req see
system.mem_ctrls.rdQLenPdf::14                   8057                       # What read queue length does an incoming req see
system.mem_ctrls.rdQLenPdf::15                   7437                       # What read queue length does an incoming req see
system.mem_ctrls.rdQLenPdf::16                   6907                       # What read queue length does an incoming req see
system.mem_ctrls.rdQLenPdf::17                   6586                       # What read queue length does an incoming req see
system.mem_ctrls.rdQLenPdf::18                   6564                       # What read queue length does an incoming req see
system.mem_ctrls.rdQLenPdf::19                   6547                       # What read queue length does an incoming req see
system.mem_ctrls.rdQLenPdf::20                   4393                       # What read queue length does an incoming req see
system.mem_ctrls.rdQLenPdf::21                    835                       # What read queue length does an incoming req see
system.mem_ctrls.rdQLenPdf::22                    119                       # What read queue length does an incoming req see
system.mem_ctrls.rdQLenPdf::23                     17                       # What read queue length does an incoming req see
system.mem_ctrls.rdQLenPdf::24                      2                       # What read queue length does an incoming req see
system.mem_ctrls.rdQLenPdf::25                      0                       # What read queue length does an incoming req see
system.mem_ctrls.rdQLenPdf::26                      0                       # What read queue length does an incoming req see
system.mem_ctrls.rdQLenPdf::27                      0                       # What read queue length does an incoming req see
system.mem_ctrls.rdQLenPdf::28                      0                       # What read queue length does an incoming req see
system.mem_ctrls.rdQLenPdf::29                      0                       # What read queue length does an incoming req see
system.mem_ctrls.rdQLenPdf::30                      0                       # What read queue length does an incoming req see
system.mem_ctrls.rdQLenPdf::31                      0                       # What read queue length does an incoming req see
system.mem_ctrls.wrQLenPdf::0                       1                       # What write queue length does an incoming req see
system.mem_ctrls.wrQLenPdf::1                       1                       # What write queue length does an incoming req see
system.mem_ctrls.wrQLenPdf::2                       1                       # What write queue length does an incoming req see
system.mem_ctrls.wrQLenPdf::3                       1                       # What write queue length does an incoming req see
system.mem_ctrls.wrQLenPdf::4                       1                       # What write queue length does an incoming req see
system.mem_ctrls.wrQLenPdf::5                       1                       # What write queue length does an incoming req see
system.mem_ctrls.wrQLenPdf::6                       1                       # What write queue length does an incoming req see
system.mem_ctrls.wrQLenPdf::7                       1                       # What write queue length does an incoming req see
system.mem_ctrls.wrQLenPdf::8                       1                       # What write queue length does an incoming req see
system.mem_ctrls.wrQLenPdf::9                       1                       # What write queue length does an incoming req see
system.mem_ctrls.wrQLenPdf::10                      1                       # What write queue length does an incoming req see
system.mem_ctrls.wrQLenPdf::11                      1                       # What write queue length does an incoming req see
system.mem_ctrls.wrQLenPdf::12                      1                       # What write queue length does an incoming req see
system.mem_ctrls.wrQLenPdf::13                      1                       # What write queue length does an incoming req see
system.mem_ctrls.wrQLenPdf::14                      1                       # What write queue length does an incoming req see
system.mem_ctrls.wrQLenPdf::15                 690666                       # What write queue length does an incoming req see
system.mem_ctrls.wrQLenPdf::16                 984446                       # What write queue length does an incoming req see
system.mem_ctrls.wrQLenPdf::17                6238163                       # What write queue length does an incoming req see
system.mem_ctrls.wrQLenPdf::18                8030968                       # What write queue length does an incoming req see
system.mem_ctrls.wrQLenPdf::19                8610517                       # What write queue length does an incoming req see
system.mem_ctrls.wrQLenPdf::20                8811738                       # What write queue length does an incoming req see
system.mem_ctrls.wrQLenPdf::21                8962341                       # What write queue length does an incoming req see
system.mem_ctrls.wrQLenPdf::22                9154298                       # What write queue length does an incoming req see
system.mem_ctrls.wrQLenPdf::23                9366110                       # What write queue length does an incoming req see
system.mem_ctrls.wrQLenPdf::24                9464784                       # What write queue length does an incoming req see
system.mem_ctrls.wrQLenPdf::25                9671487                       # What write queue length does an incoming req see
system.mem_ctrls.wrQLenPdf::26                9680705                       # What write queue length does an incoming req see
system.mem_ctrls.wrQLenPdf::27                9886838                       # What write queue length does an incoming req see
system.mem_ctrls.wrQLenPdf::28                9476337                       # What write queue length does an incoming req see
system.mem_ctrls.wrQLenPdf::29                9341316                       # What write queue length does an incoming req see
system.mem_ctrls.wrQLenPdf::30                9124550                       # What write queue length does an incoming req see
system.mem_ctrls.wrQLenPdf::31                8930083                       # What write queue length does an incoming req see
system.mem_ctrls.wrQLenPdf::32                8862042                       # What write queue length does an incoming req see
system.mem_ctrls.wrQLenPdf::33                 581328                       # What write queue length does an incoming req see
system.mem_ctrls.wrQLenPdf::34                 515421                       # What write queue length does an incoming req see
system.mem_ctrls.wrQLenPdf::35                 403818                       # What write queue length does an incoming req see
system.mem_ctrls.wrQLenPdf::36                 329085                       # What write queue length does an incoming req see
system.mem_ctrls.wrQLenPdf::37                 276094                       # What write queue length does an incoming req see
system.mem_ctrls.wrQLenPdf::38                 241891                       # What write queue length does an incoming req see
system.mem_ctrls.wrQLenPdf::39                 217105                       # What write queue length does an incoming req see
system.mem_ctrls.wrQLenPdf::40                 220678                       # What write queue length does an incoming req see
system.mem_ctrls.wrQLenPdf::41                 207633                       # What write queue length does an incoming req see
system.mem_ctrls.wrQLenPdf::42                 214139                       # What write queue length does an incoming req see
system.mem_ctrls.wrQLenPdf::43                 201489                       # What write queue length does an incoming req see
system.mem_ctrls.wrQLenPdf::44                 190354                       # What write queue length does an incoming req see
system.mem_ctrls.wrQLenPdf::45                 180457                       # What write queue length does an incoming req see
system.mem_ctrls.wrQLenPdf::46                 184287                       # What write queue length does an incoming req see
system.mem_ctrls.wrQLenPdf::47                 186198                       # What write queue length does an incoming req see
system.mem_ctrls.wrQLenPdf::48                 190029                       # What write queue length does an incoming req see
system.mem_ctrls.wrQLenPdf::49                 182753                       # What write queue length does an incoming req see
system.mem_ctrls.wrQLenPdf::50                 155606                       # What write queue length does an incoming req see
system.mem_ctrls.wrQLenPdf::51                 141892                       # What write queue length does an incoming req see
system.mem_ctrls.wrQLenPdf::52                 128260                       # What write queue length does an incoming req see
system.mem_ctrls.wrQLenPdf::53                 117987                       # What write queue length does an incoming req see
system.mem_ctrls.wrQLenPdf::54                 102779                       # What write queue length does an incoming req see
system.mem_ctrls.wrQLenPdf::55                 122908                       # What write queue length does an incoming req see
system.mem_ctrls.wrQLenPdf::56                 122079                       # What write queue length does an incoming req see
system.mem_ctrls.wrQLenPdf::57                 113564                       # What write queue length does an incoming req see
system.mem_ctrls.wrQLenPdf::58                 103641                       # What write queue length does an incoming req see
system.mem_ctrls.wrQLenPdf::59                  89518                       # What write queue length does an incoming req see
system.mem_ctrls.wrQLenPdf::60                  77155                       # What write queue length does an incoming req see
system.mem_ctrls.wrQLenPdf::61                 100108                       # What write queue length does an incoming req see
system.mem_ctrls.wrQLenPdf::62                  93240                       # What write queue length does an incoming req see
system.mem_ctrls.wrQLenPdf::63                 101159                       # What write queue length does an incoming req see
system.mem_ctrls.bytesPerActivate::samples     92551106                       # Bytes accessed per row activation
system.mem_ctrls.bytesPerActivate::mean    190.879724                       # Bytes accessed per row activation
system.mem_ctrls.bytesPerActivate::gmean   133.763860                       # Bytes accessed per row activation
system.mem_ctrls.bytesPerActivate::stdev   200.598009                       # Bytes accessed per row activation
system.mem_ctrls.bytesPerActivate::0-127     39115844     42.26%     42.26% # Bytes accessed per row activation
system.mem_ctrls.bytesPerActivate::128-255     30490696     32.94%     75.21% # Bytes accessed per row activation
system.mem_ctrls.bytesPerActivate::256-383     11061454     11.95%     87.16% # Bytes accessed per row activation
system.mem_ctrls.bytesPerActivate::384-511      4651883      5.03%     92.19% # Bytes accessed per row activation
system.mem_ctrls.bytesPerActivate::512-639      2320993      2.51%     94.69% # Bytes accessed per row activation
system.mem_ctrls.bytesPerActivate::640-767      1363123      1.47%     96.17% # Bytes accessed per row activation
system.mem_ctrls.bytesPerActivate::768-895       864387      0.93%     97.10% # Bytes accessed per row activation
system.mem_ctrls.bytesPerActivate::896-1023       530372      0.57%     97.67% # Bytes accessed per row activation
system.mem_ctrls.bytesPerActivate::1024-1151      2152354      2.33%    100.00% # Bytes accessed per row activation
system.mem_ctrls.bytesPerActivate::total     92551106                       # Bytes accessed per row activation
system.mem_ctrls.rdPerTurnAround::samples      8317924                       # Reads before turning the bus around for writes
system.mem_ctrls.rdPerTurnAround::mean      14.986101                       # Reads before turning the bus around for writes
system.mem_ctrls.rdPerTurnAround::stdev      4.474099                       # Reads before turning the bus around for writes
system.mem_ctrls.rdPerTurnAround::0-63        8311254     99.92%     99.92% # Reads before turning the bus around for writes
system.mem_ctrls.rdPerTurnAround::64-127         5394      0.06%     99.98% # Reads before turning the bus around for writes
system.mem_ctrls.rdPerTurnAround::128-191         1121      0.01%    100.00% # Reads before turning the bus around for writes
system.mem_ctrls.rdPerTurnAround::192-255          107      0.00%    100.00% # Reads before turning the bus around for writes
system.mem_ctrls.rdPerTurnAround::256-319           27      0.00%    100.00% # Reads before turning the bus around for writes
system.mem_ctrls.rdPerTurnAround::320-383            8      0.00%    100.00% # Reads before turning the bus around for writes
system.mem_ctrls.rdPerTurnAround::384-447            6      0.00%    100.00% # Reads before turning the bus around for writes
system.mem_ctrls.rdPerTurnAround::448-511            3      0.00%    100.00% # Reads before turning the bus around for writes
system.mem_ctrls.rdPerTurnAround::512-575            1      0.00%    100.00% # Reads before turning the bus around for writes
system.mem_ctrls.rdPerTurnAround::640-703            1      0.00%    100.00% # Reads before turning the bus around for writes
system.mem_ctrls.rdPerTurnAround::704-767            1      0.00%    100.00% # Reads before turning the bus around for writes
system.mem_ctrls.rdPerTurnAround::1728-1791            1      0.00%    100.00% # Reads before turning the bus around for writes
system.mem_ctrls.rdPerTurnAround::total       8317924                       # Reads before turning the bus around for writes
system.mem_ctrls.wrPerTurnAround::samples      8317924                       # Writes before turning the bus around for reads
system.mem_ctrls.wrPerTurnAround::mean      18.199257                       # Writes before turning the bus around for reads
system.mem_ctrls.wrPerTurnAround::gmean     16.594122                       # Writes before turning the bus around for reads
system.mem_ctrls.wrPerTurnAround::stdev    210.544436                       # Writes before turning the bus around for reads
system.mem_ctrls.wrPerTurnAround::0-8191      8317911    100.00%    100.00% # Writes before turning the bus around for reads
system.mem_ctrls.wrPerTurnAround::24576-32767            9      0.00%    100.00% # Writes before turning the bus around for reads
system.mem_ctrls.wrPerTurnAround::57344-65535            1      0.00%    100.00% # Writes before turning the bus around for reads
system.mem_ctrls.wrPerTurnAround::253952-262143            1      0.00%    100.00% # Writes before turning the bus around for reads
system.mem_ctrls.wrPerTurnAround::262144-270335            1      0.00%    100.00% # Writes before turning the bus around for reads
system.mem_ctrls.wrPerTurnAround::450560-458751            1      0.00%    100.00% # Writes before turning the bus around for reads
system.mem_ctrls.wrPerTurnAround::total       8317924                       # Writes before turning the bus around for reads
system.mem_ctrls.totQLat                 3015529261974                       # Total ticks spent queuing
system.mem_ctrls.totMemAccLat            5352777830724                       # Total ticks spent from burst creation until serviced by the DRAM
system.mem_ctrls.totBusLat               623266285000                       # Total ticks spent in databus transfers
system.mem_ctrls.avgQLat                     24191.34                       # Average queueing delay per DRAM burst
system.mem_ctrls.avgBusLat                    5000.00                       # Average bus latency per DRAM burst
system.mem_ctrls.avgMemAccLat                42941.34                       # Average memory access latency per DRAM burst
system.mem_ctrls.avgRdBW                         0.14                       # Average DRAM read bandwidth in MiByte/s
system.mem_ctrls.avgWrBW                         0.17                       # Average achieved write bandwidth in MiByte/s
system.mem_ctrls.avgRdBWSys                      0.16                       # Average system read bandwidth in MiByte/s
system.mem_ctrls.avgWrBWSys                      0.18                       # Average system write bandwidth in MiByte/s
system.mem_ctrls.peakBW                      12800.00                       # Theoretical peak bandwidth in MiByte/s
system.mem_ctrls.busUtil                         0.00                       # Data bus utilization in percentage
system.mem_ctrls.busUtilRead                     0.00                       # Data bus utilization in percentage for reads
system.mem_ctrls.busUtilWrite                    0.00                       # Data bus utilization in percentage for writes
system.mem_ctrls.avgRdQLen                       1.00                       # Average read queue length when enqueuing
system.mem_ctrls.avgWrQLen                      25.17                       # Average write queue length when enqueuing
system.mem_ctrls.readRowHits                 83934999                       # Number of row buffer hits during reads
system.mem_ctrls.writeRowHits                99547175                       # Number of row buffer hits during writes
system.mem_ctrls.readRowHitRate                 67.33                       # Row buffer hit rate for reads
system.mem_ctrls.writeRowHitRate                65.76                       # Row buffer hit rate for writes
system.mem_ctrls.avgGap                  189304746.10                       # Average gap between requests
system.mem_ctrls.pageHitRate                    66.47                       # Row buffer hit rate, read and write combined
system.mem_ctrls_0.actEnergy             323890963200                       # Energy for activate commands per rank (pJ)
system.mem_ctrls_0.preEnergy             172152106830                       # Energy for precharge commands per rank (pJ)
system.mem_ctrls_0.readEnergy            414086384880                       # Energy for read commands per rank (pJ)
system.mem_ctrls_0.writeEnergy           373124127960                       # Energy for write commands per rank (pJ)
system.mem_ctrls_0.refreshEnergy         951321967440.000122                       # Energy for refresh commands per rank (pJ)
system.mem_ctrls_0.actBackEnergy         2078543845500                       # Energy for active background per rank (pJ)
system.mem_ctrls_0.preBackEnergy          30522486720                       # Energy for precharge background per rank (pJ)
system.mem_ctrls_0.actPowerDownEnergy    2610238874220                       # Energy for active power-down per rank (pJ)
system.mem_ctrls_0.prePowerDownEnergy    385835613600                       # Energy for precharge power-down per rank (pJ)
system.mem_ctrls_0.selfRefreshEnergy     13521621389733480                       # Energy for self refresh per rank (pJ)
system.mem_ctrls_0.totalEnergy           13528961153520846                       # Total energy per rank (pJ)
system.mem_ctrls_0.averagePower            240.082765                       # Core power per rank (mW)
system.mem_ctrls_0.totalIdleTime         56346600759097616                       # Total Idle time Per DRAM Rank
system.mem_ctrls_0.memoryStateTime::IDLE  35743918452                       # Time in different power states
system.mem_ctrls_0.memoryStateTime::REF  402991504000                       # Time in different power states
system.mem_ctrls_0.memoryStateTime::SREF 56339871764609144                       # Time in different power states
system.mem_ctrls_0.memoryStateTime::PRE_PDN 1004783511969                       # Time in different power states
system.mem_ctrls_0.memoryStateTime::ACT  4199057129555                       # Time in different power states
system.mem_ctrls_0.memoryStateTime::ACT_PDN 5724213829524                       # Time in different power states
system.mem_ctrls_1.actEnergy             336924026460                       # Energy for activate commands per rank (pJ)
system.mem_ctrls_1.preEnergy             179079340440                       # Energy for precharge commands per rank (pJ)
system.mem_ctrls_1.readEnergy            475937870100                       # Energy for read commands per rank (pJ)
system.mem_ctrls_1.writeEnergy           417079659960                       # Energy for write commands per rank (pJ)
system.mem_ctrls_1.refreshEnergy         959483157360.000122                       # Energy for refresh commands per rank (pJ)
system.mem_ctrls_1.actBackEnergy         2012149027410                       # Energy for active background per rank (pJ)
system.mem_ctrls_1.preBackEnergy          30817863840                       # Energy for precharge background per rank (pJ)
system.mem_ctrls_1.actPowerDownEnergy    2721201271830                       # Energy for active power-down per rank (pJ)
system.mem_ctrls_1.prePowerDownEnergy    392142207840                       # Energy for precharge power-down per rank (pJ)
system.mem_ctrls_1.selfRefreshEnergy     13521592926610020                       # Energy for self refresh per rank (pJ)
system.mem_ctrls_1.totalEnergy           13529117794602408                       # Total energy per rank (pJ)
system.mem_ctrls_1.averagePower            240.085545                       # Core power per rank (mW)
system.mem_ctrls_1.totalIdleTime         56346745571075384                       # Total Idle time Per DRAM Rank
system.mem_ctrls_1.memoryStateTime::IDLE  35312041778                       # Time in different power states
system.mem_ctrls_1.memoryStateTime::REF  406435876000                       # Time in different power states
system.mem_ctrls_1.memoryStateTime::SREF 56339756822563552                       # Time in different power states
system.mem_ctrls_1.memoryStateTime::PRE_PDN 1021207411906                       # Time in different power states
system.mem_ctrls_1.memoryStateTime::ACT  4051231923101                       # Time in different power states
system.mem_ctrls_1.memoryStateTime::ACT_PDN 5967544745215                       # Time in different power states
system.pwrStateResidencyTicks::UNDEFINED 56351238554503000                       # Cumulative time (in ticks) in various power states
system.bridge.pwrStateResidencyTicks::UNDEFINED 56351238554503000                       # Cumulative time (in ticks) in various power states
system.cf0.dma_read_full_pages                   4813                       # Number of full page size DMA reads (not PRD).
system.cf0.dma_read_bytes                    19714048                       # Number of bytes transfered via DMA reads (not PRD).
system.cf0.dma_read_txs                          4813                       # Number of DMA read transactions (not PRD).
system.cf0.dma_write_full_pages                  7272                       # Number of full page size DMA writes.
system.cf0.dma_write_bytes                   29788672                       # Number of bytes transfered via DMA writes.
system.cf0.dma_write_txs                         7275                       # Number of DMA write transactions.
system.cpu.branchPred.lookups              1948754341                       # Number of BP lookups
system.cpu.branchPred.condPredicted        1505607134                       # Number of conditional branches predicted
system.cpu.branchPred.condIncorrect         104025642                       # Number of conditional branches incorrect
system.cpu.branchPred.BTBLookups           1222731002                       # Number of BTB lookups
system.cpu.branchPred.BTBHits               894871497                       # Number of BTB hits
system.cpu.branchPred.BTBCorrect                    0                       # Number of correct BTB predictions (this stat may not work properly.
system.cpu.branchPred.BTBHitPct             73.186293                       # BTB Hit Percentage
system.cpu.branchPred.usedRAS               142343466                       # Number of times the RAS was used to get a target.
system.cpu.branchPred.RASInCorrect             822611                       # Number of incorrect RAS predictions.
system.cpu.branchPred.indirectLookups        32592695                       # Number of indirect predictor lookups.
system.cpu.branchPred.indirectHits           24928245                       # Number of indirect target hits.
system.cpu.branchPred.indirectMisses          7664450                       # Number of indirect misses.
system.cpu.branchPredindirectMispredicted      2186967                       # Number of mispredicted indirect branches.
system.cpu_voltage_domain.voltage                   1                       # Voltage in Volts
system.cpu_clk_domain.clock                       500                       # Clock period in ticks
system.cpu.dstage2_mmu.stage2_tlb.walker.pwrStateResidencyTicks::UNDEFINED 56351238554503000                       # Cumulative time (in ticks) in various power states
system.cpu.dstage2_mmu.stage2_tlb.walker.walks            0                       # Table walker walks requested
system.cpu.dstage2_mmu.stage2_tlb.walker.walkRequestOrigin_Requested::Data            0                       # Table walker requests started/completed, data/inst
system.cpu.dstage2_mmu.stage2_tlb.walker.walkRequestOrigin_Requested::Inst            0                       # Table walker requests started/completed, data/inst
system.cpu.dstage2_mmu.stage2_tlb.walker.walkRequestOrigin_Requested::total            0                       # Table walker requests started/completed, data/inst
system.cpu.dstage2_mmu.stage2_tlb.walker.walkRequestOrigin_Completed::Data            0                       # Table walker requests started/completed, data/inst
system.cpu.dstage2_mmu.stage2_tlb.walker.walkRequestOrigin_Completed::Inst            0                       # Table walker requests started/completed, data/inst
system.cpu.dstage2_mmu.stage2_tlb.walker.walkRequestOrigin_Completed::total            0                       # Table walker requests started/completed, data/inst
system.cpu.dstage2_mmu.stage2_tlb.walker.walkRequestOrigin::total            0                       # Table walker requests started/completed, data/inst
system.cpu.dstage2_mmu.stage2_tlb.inst_hits            0                       # ITB inst hits
system.cpu.dstage2_mmu.stage2_tlb.inst_misses            0                       # ITB inst misses
system.cpu.dstage2_mmu.stage2_tlb.read_hits            0                       # DTB read hits
system.cpu.dstage2_mmu.stage2_tlb.read_misses            0                       # DTB read misses
system.cpu.dstage2_mmu.stage2_tlb.write_hits            0                       # DTB write hits
system.cpu.dstage2_mmu.stage2_tlb.write_misses            0                       # DTB write misses
system.cpu.dstage2_mmu.stage2_tlb.flush_tlb            0                       # Number of times complete TLB was flushed
system.cpu.dstage2_mmu.stage2_tlb.flush_tlb_mva            0                       # Number of times TLB was flushed by MVA
system.cpu.dstage2_mmu.stage2_tlb.flush_tlb_mva_asid            0                       # Number of times TLB was flushed by MVA & ASID
system.cpu.dstage2_mmu.stage2_tlb.flush_tlb_asid            0                       # Number of times TLB was flushed by ASID
system.cpu.dstage2_mmu.stage2_tlb.flush_entries            0                       # Number of entries that have been flushed from TLB
system.cpu.dstage2_mmu.stage2_tlb.align_faults            0                       # Number of TLB faults due to alignment restrictions
system.cpu.dstage2_mmu.stage2_tlb.prefetch_faults            0                       # Number of TLB faults due to prefetch
system.cpu.dstage2_mmu.stage2_tlb.domain_faults            0                       # Number of TLB faults due to domain restrictions
system.cpu.dstage2_mmu.stage2_tlb.perms_faults            0                       # Number of TLB faults due to permissions restrictions
system.cpu.dstage2_mmu.stage2_tlb.read_accesses            0                       # DTB read accesses
system.cpu.dstage2_mmu.stage2_tlb.write_accesses            0                       # DTB write accesses
system.cpu.dstage2_mmu.stage2_tlb.inst_accesses            0                       # ITB inst accesses
system.cpu.dstage2_mmu.stage2_tlb.hits              0                       # DTB hits
system.cpu.dstage2_mmu.stage2_tlb.misses            0                       # DTB misses
system.cpu.dstage2_mmu.stage2_tlb.accesses            0                       # DTB accesses
system.cpu.dtb.walker.pwrStateResidencyTicks::UNDEFINED 56351238554503000                       # Cumulative time (in ticks) in various power states
system.cpu.dtb.walker.walks                  11568341                       # Table walker walks requested
system.cpu.dtb.walker.walksLong              11568341                       # Table walker walks initiated with long descriptors
system.cpu.dtb.walker.walksLongTerminationLevel::Level2        48841                       # Level at which table walker walks with long descriptors terminate
system.cpu.dtb.walker.walksLongTerminationLevel::Level3      1377655                       # Level at which table walker walks with long descriptors terminate
system.cpu.dtb.walker.walksSquashedBefore      1992981                       # Table walks squashed before starting
system.cpu.dtb.walker.walkWaitTime::samples      9575360                       # Table walker wait (enqueue to first request) latency
system.cpu.dtb.walker.walkWaitTime::mean  1240.602233                       # Table walker wait (enqueue to first request) latency
system.cpu.dtb.walker.walkWaitTime::stdev 12776.956423                       # Table walker wait (enqueue to first request) latency
system.cpu.dtb.walker.walkWaitTime::0-65535      9505755     99.27%     99.27% # Table walker wait (enqueue to first request) latency
system.cpu.dtb.walker.walkWaitTime::65536-131071        46289      0.48%     99.76% # Table walker wait (enqueue to first request) latency
system.cpu.dtb.walker.walkWaitTime::131072-196607        14690      0.15%     99.91% # Table walker wait (enqueue to first request) latency
system.cpu.dtb.walker.walkWaitTime::196608-262143         4748      0.05%     99.96% # Table walker wait (enqueue to first request) latency
system.cpu.dtb.walker.walkWaitTime::262144-327679         2038      0.02%     99.98% # Table walker wait (enqueue to first request) latency
system.cpu.dtb.walker.walkWaitTime::327680-393215         1086      0.01%     99.99% # Table walker wait (enqueue to first request) latency
system.cpu.dtb.walker.walkWaitTime::393216-458751          431      0.00%    100.00% # Table walker wait (enqueue to first request) latency
system.cpu.dtb.walker.walkWaitTime::458752-524287          183      0.00%    100.00% # Table walker wait (enqueue to first request) latency
system.cpu.dtb.walker.walkWaitTime::524288-589823           89      0.00%    100.00% # Table walker wait (enqueue to first request) latency
system.cpu.dtb.walker.walkWaitTime::589824-655359           35      0.00%    100.00% # Table walker wait (enqueue to first request) latency
system.cpu.dtb.walker.walkWaitTime::655360-720895            9      0.00%    100.00% # Table walker wait (enqueue to first request) latency
system.cpu.dtb.walker.walkWaitTime::720896-786431            6      0.00%    100.00% # Table walker wait (enqueue to first request) latency
system.cpu.dtb.walker.walkWaitTime::786432-851967            1      0.00%    100.00% # Table walker wait (enqueue to first request) latency
system.cpu.dtb.walker.walkWaitTime::total      9575360                       # Table walker wait (enqueue to first request) latency
system.cpu.dtb.walker.walkCompletionTime::samples      3108868                       # Table walker service (enqueue to completion) latency
system.cpu.dtb.walker.walkCompletionTime::mean 48032.056684                       # Table walker service (enqueue to completion) latency
system.cpu.dtb.walker.walkCompletionTime::gmean 23891.605570                       # Table walker service (enqueue to completion) latency
system.cpu.dtb.walker.walkCompletionTime::stdev 59533.827708                       # Table walker service (enqueue to completion) latency
system.cpu.dtb.walker.walkCompletionTime::0-131071      2867432     92.23%     92.23% # Table walker service (enqueue to completion) latency
system.cpu.dtb.walker.walkCompletionTime::131072-262143       199990      6.43%     98.67% # Table walker service (enqueue to completion) latency
system.cpu.dtb.walker.walkCompletionTime::262144-393215        34652      1.11%     99.78% # Table walker service (enqueue to completion) latency
system.cpu.dtb.walker.walkCompletionTime::393216-524287         5340      0.17%     99.95% # Table walker service (enqueue to completion) latency
system.cpu.dtb.walker.walkCompletionTime::524288-655359         1164      0.04%     99.99% # Table walker service (enqueue to completion) latency
system.cpu.dtb.walker.walkCompletionTime::655360-786431          246      0.01%    100.00% # Table walker service (enqueue to completion) latency
system.cpu.dtb.walker.walkCompletionTime::786432-917503           31      0.00%    100.00% # Table walker service (enqueue to completion) latency
system.cpu.dtb.walker.walkCompletionTime::917504-1.04858e+06           12      0.00%    100.00% # Table walker service (enqueue to completion) latency
system.cpu.dtb.walker.walkCompletionTime::1.04858e+06-1.17965e+06            1      0.00%    100.00% # Table walker service (enqueue to completion) latency
system.cpu.dtb.walker.walkCompletionTime::total      3108868                       # Table walker service (enqueue to completion) latency
system.cpu.dtb.walker.walksPending::samples 20466132776620                       # Table walker pending requests distribution
system.cpu.dtb.walker.walksPending::mean     0.919625                       # Table walker pending requests distribution
system.cpu.dtb.walker.walksPending::stdev     0.307908                       # Table walker pending requests distribution
system.cpu.dtb.walker.walksPending::0-3  20457404944620     99.96%     99.96% # Table walker pending requests distribution
system.cpu.dtb.walker.walksPending::4-7    5934855000      0.03%     99.99% # Table walker pending requests distribution
system.cpu.dtb.walker.walksPending::8-11   2166870500      0.01%    100.00% # Table walker pending requests distribution
system.cpu.dtb.walker.walksPending::12-15    561824000      0.00%    100.00% # Table walker pending requests distribution
system.cpu.dtb.walker.walksPending::16-19     64255500      0.00%    100.00% # Table walker pending requests distribution
system.cpu.dtb.walker.walksPending::20-23         4000      0.00%    100.00% # Table walker pending requests distribution
system.cpu.dtb.walker.walksPending::24-27         2500      0.00%    100.00% # Table walker pending requests distribution
system.cpu.dtb.walker.walksPending::28-31         4000      0.00%    100.00% # Table walker pending requests distribution
system.cpu.dtb.walker.walksPending::32-35        16500      0.00%    100.00% # Table walker pending requests distribution
system.cpu.dtb.walker.walksPending::total 20466132776620                       # Table walker pending requests distribution
system.cpu.dtb.walker.walkPageSizes::4K       1377655     96.58%     96.58% # Table walker page sizes translated
system.cpu.dtb.walker.walkPageSizes::2M         48841      3.42%    100.00% # Table walker page sizes translated
system.cpu.dtb.walker.walkPageSizes::total      1426496                       # Table walker page sizes translated
system.cpu.dtb.walker.walkRequestOrigin_Requested::Data     11568341                       # Table walker requests started/completed, data/inst
system.cpu.dtb.walker.walkRequestOrigin_Requested::Inst            0                       # Table walker requests started/completed, data/inst
system.cpu.dtb.walker.walkRequestOrigin_Requested::total     11568341                       # Table walker requests started/completed, data/inst
system.cpu.dtb.walker.walkRequestOrigin_Completed::Data      1426496                       # Table walker requests started/completed, data/inst
system.cpu.dtb.walker.walkRequestOrigin_Completed::Inst            0                       # Table walker requests started/completed, data/inst
system.cpu.dtb.walker.walkRequestOrigin_Completed::total      1426496                       # Table walker requests started/completed, data/inst
system.cpu.dtb.walker.walkRequestOrigin::total     12994837                       # Table walker requests started/completed, data/inst
system.cpu.dtb.inst_hits                            0                       # ITB inst hits
system.cpu.dtb.inst_misses                          0                       # ITB inst misses
system.cpu.dtb.read_hits                   2022422353                       # DTB read hits
system.cpu.dtb.read_misses                   10087131                       # DTB read misses
system.cpu.dtb.write_hits                   861280231                       # DTB write hits
system.cpu.dtb.write_misses                   1481210                       # DTB write misses
system.cpu.dtb.flush_tlb                           13                       # Number of times complete TLB was flushed
system.cpu.dtb.flush_tlb_mva                        6                       # Number of times TLB was flushed by MVA
system.cpu.dtb.flush_tlb_mva_asid              116079                       # Number of times TLB was flushed by MVA & ASID
system.cpu.dtb.flush_tlb_asid                     708                       # Number of times TLB was flushed by ASID
system.cpu.dtb.flush_entries                    92155                       # Number of entries that have been flushed from TLB
system.cpu.dtb.align_faults                       505                       # Number of TLB faults due to alignment restrictions
system.cpu.dtb.prefetch_faults                  30863                       # Number of TLB faults due to prefetch
system.cpu.dtb.domain_faults                        0                       # Number of TLB faults due to domain restrictions
system.cpu.dtb.perms_faults                    195260                       # Number of TLB faults due to permissions restrictions
system.cpu.dtb.read_accesses               2032509484                       # DTB read accesses
system.cpu.dtb.write_accesses               862761441                       # DTB write accesses
system.cpu.dtb.inst_accesses                        0                       # ITB inst accesses
system.cpu.dtb.hits                        2883702584                       # DTB hits
system.cpu.dtb.misses                        11568341                       # DTB misses
system.cpu.dtb.accesses                    2895270925                       # DTB accesses
system.cpu.istage2_mmu.stage2_tlb.walker.pwrStateResidencyTicks::UNDEFINED 56351238554503000                       # Cumulative time (in ticks) in various power states
system.cpu.istage2_mmu.stage2_tlb.walker.walks            0                       # Table walker walks requested
system.cpu.istage2_mmu.stage2_tlb.walker.walkRequestOrigin_Requested::Data            0                       # Table walker requests started/completed, data/inst
system.cpu.istage2_mmu.stage2_tlb.walker.walkRequestOrigin_Requested::Inst            0                       # Table walker requests started/completed, data/inst
system.cpu.istage2_mmu.stage2_tlb.walker.walkRequestOrigin_Requested::total            0                       # Table walker requests started/completed, data/inst
system.cpu.istage2_mmu.stage2_tlb.walker.walkRequestOrigin_Completed::Data            0                       # Table walker requests started/completed, data/inst
system.cpu.istage2_mmu.stage2_tlb.walker.walkRequestOrigin_Completed::Inst            0                       # Table walker requests started/completed, data/inst
system.cpu.istage2_mmu.stage2_tlb.walker.walkRequestOrigin_Completed::total            0                       # Table walker requests started/completed, data/inst
system.cpu.istage2_mmu.stage2_tlb.walker.walkRequestOrigin::total            0                       # Table walker requests started/completed, data/inst
system.cpu.istage2_mmu.stage2_tlb.inst_hits            0                       # ITB inst hits
system.cpu.istage2_mmu.stage2_tlb.inst_misses            0                       # ITB inst misses
system.cpu.istage2_mmu.stage2_tlb.read_hits            0                       # DTB read hits
system.cpu.istage2_mmu.stage2_tlb.read_misses            0                       # DTB read misses
system.cpu.istage2_mmu.stage2_tlb.write_hits            0                       # DTB write hits
system.cpu.istage2_mmu.stage2_tlb.write_misses            0                       # DTB write misses
system.cpu.istage2_mmu.stage2_tlb.flush_tlb            0                       # Number of times complete TLB was flushed
system.cpu.istage2_mmu.stage2_tlb.flush_tlb_mva            0                       # Number of times TLB was flushed by MVA
system.cpu.istage2_mmu.stage2_tlb.flush_tlb_mva_asid            0                       # Number of times TLB was flushed by MVA & ASID
system.cpu.istage2_mmu.stage2_tlb.flush_tlb_asid            0                       # Number of times TLB was flushed by ASID
system.cpu.istage2_mmu.stage2_tlb.flush_entries            0                       # Number of entries that have been flushed from TLB
system.cpu.istage2_mmu.stage2_tlb.align_faults            0                       # Number of TLB faults due to alignment restrictions
system.cpu.istage2_mmu.stage2_tlb.prefetch_faults            0                       # Number of TLB faults due to prefetch
system.cpu.istage2_mmu.stage2_tlb.domain_faults            0                       # Number of TLB faults due to domain restrictions
system.cpu.istage2_mmu.stage2_tlb.perms_faults            0                       # Number of TLB faults due to permissions restrictions
system.cpu.istage2_mmu.stage2_tlb.read_accesses            0                       # DTB read accesses
system.cpu.istage2_mmu.stage2_tlb.write_accesses            0                       # DTB write accesses
system.cpu.istage2_mmu.stage2_tlb.inst_accesses            0                       # ITB inst accesses
system.cpu.istage2_mmu.stage2_tlb.hits              0                       # DTB hits
system.cpu.istage2_mmu.stage2_tlb.misses            0                       # DTB misses
system.cpu.istage2_mmu.stage2_tlb.accesses            0                       # DTB accesses
system.cpu.itb.walker.pwrStateResidencyTicks::UNDEFINED 56351238554503000                       # Cumulative time (in ticks) in various power states
system.cpu.itb.walker.walks                    449964                       # Table walker walks requested
system.cpu.itb.walker.walksLong                449964                       # Table walker walks initiated with long descriptors
system.cpu.itb.walker.walksLongTerminationLevel::Level2         5963                       # Level at which table walker walks with long descriptors terminate
system.cpu.itb.walker.walksLongTerminationLevel::Level3       288898                       # Level at which table walker walks with long descriptors terminate
system.cpu.itb.walker.walksSquashedBefore        30998                       # Table walks squashed before starting
system.cpu.itb.walker.walkWaitTime::samples       418966                       # Table walker wait (enqueue to first request) latency
system.cpu.itb.walker.walkWaitTime::mean  2263.890149                       # Table walker wait (enqueue to first request) latency
system.cpu.itb.walker.walkWaitTime::stdev 19764.216562                       # Table walker wait (enqueue to first request) latency
system.cpu.itb.walker.walkWaitTime::0-65535       413707     98.74%     98.74% # Table walker wait (enqueue to first request) latency
system.cpu.itb.walker.walkWaitTime::65536-131071         2596      0.62%     99.36% # Table walker wait (enqueue to first request) latency
system.cpu.itb.walker.walkWaitTime::131072-196607         1227      0.29%     99.66% # Table walker wait (enqueue to first request) latency
system.cpu.itb.walker.walkWaitTime::196608-262143          881      0.21%     99.87% # Table walker wait (enqueue to first request) latency
system.cpu.itb.walker.walkWaitTime::262144-327679          358      0.09%     99.95% # Table walker wait (enqueue to first request) latency
system.cpu.itb.walker.walkWaitTime::327680-393215          130      0.03%     99.98% # Table walker wait (enqueue to first request) latency
system.cpu.itb.walker.walkWaitTime::393216-458751           31      0.01%     99.99% # Table walker wait (enqueue to first request) latency
system.cpu.itb.walker.walkWaitTime::458752-524287           27      0.01%    100.00% # Table walker wait (enqueue to first request) latency
system.cpu.itb.walker.walkWaitTime::524288-589823            6      0.00%    100.00% # Table walker wait (enqueue to first request) latency
system.cpu.itb.walker.walkWaitTime::589824-655359            3      0.00%    100.00% # Table walker wait (enqueue to first request) latency
system.cpu.itb.walker.walkWaitTime::total       418966                       # Table walker wait (enqueue to first request) latency
system.cpu.itb.walker.walkCompletionTime::samples       325859                       # Table walker service (enqueue to completion) latency
system.cpu.itb.walker.walkCompletionTime::mean 43571.794856                       # Table walker service (enqueue to completion) latency
system.cpu.itb.walker.walkCompletionTime::gmean 20674.682102                       # Table walker service (enqueue to completion) latency
system.cpu.itb.walker.walkCompletionTime::stdev 58806.476105                       # Table walker service (enqueue to completion) latency
system.cpu.itb.walker.walkCompletionTime::0-65535       230357     70.69%     70.69% # Table walker service (enqueue to completion) latency
system.cpu.itb.walker.walkCompletionTime::65536-131071        74333     22.81%     93.50% # Table walker service (enqueue to completion) latency
system.cpu.itb.walker.walkCompletionTime::131072-196607        11439      3.51%     97.01% # Table walker service (enqueue to completion) latency
system.cpu.itb.walker.walkCompletionTime::196608-262143         5461      1.68%     98.69% # Table walker service (enqueue to completion) latency
system.cpu.itb.walker.walkCompletionTime::262144-327679         2584      0.79%     99.48% # Table walker service (enqueue to completion) latency
system.cpu.itb.walker.walkCompletionTime::327680-393215         1113      0.34%     99.82% # Table walker service (enqueue to completion) latency
system.cpu.itb.walker.walkCompletionTime::393216-458751          287      0.09%     99.91% # Table walker service (enqueue to completion) latency
system.cpu.itb.walker.walkCompletionTime::458752-524287          180      0.06%     99.97% # Table walker service (enqueue to completion) latency
system.cpu.itb.walker.walkCompletionTime::524288-589823           66      0.02%     99.99% # Table walker service (enqueue to completion) latency
system.cpu.itb.walker.walkCompletionTime::589824-655359           30      0.01%    100.00% # Table walker service (enqueue to completion) latency
system.cpu.itb.walker.walkCompletionTime::655360-720895            4      0.00%    100.00% # Table walker service (enqueue to completion) latency
system.cpu.itb.walker.walkCompletionTime::720896-786431            3      0.00%    100.00% # Table walker service (enqueue to completion) latency
system.cpu.itb.walker.walkCompletionTime::786432-851967            2      0.00%    100.00% # Table walker service (enqueue to completion) latency
system.cpu.itb.walker.walkCompletionTime::total       325859                       # Table walker service (enqueue to completion) latency
system.cpu.itb.walker.walksPending::samples 2702148681864                       # Table walker pending requests distribution
system.cpu.itb.walker.walksPending::mean     0.953800                       # Table walker pending requests distribution
system.cpu.itb.walker.walksPending::stdev     0.210639                       # Table walker pending requests distribution
system.cpu.itb.walker.walksPending::0    125244718620      4.64%      4.64% # Table walker pending requests distribution
system.cpu.itb.walker.walksPending::1    2576504161744     95.35%     99.99% # Table walker pending requests distribution
system.cpu.itb.walker.walksPending::2       395646500      0.01%    100.00% # Table walker pending requests distribution
system.cpu.itb.walker.walksPending::3         3847000      0.00%    100.00% # Table walker pending requests distribution
system.cpu.itb.walker.walksPending::4          249000      0.00%    100.00% # Table walker pending requests distribution
system.cpu.itb.walker.walksPending::5           25000      0.00%    100.00% # Table walker pending requests distribution
system.cpu.itb.walker.walksPending::6           34000      0.00%    100.00% # Table walker pending requests distribution
system.cpu.itb.walker.walksPending::total 2702148681864                       # Table walker pending requests distribution
system.cpu.itb.walker.walkPageSizes::4K        288898     97.98%     97.98% # Table walker page sizes translated
system.cpu.itb.walker.walkPageSizes::2M          5963      2.02%    100.00% # Table walker page sizes translated
system.cpu.itb.walker.walkPageSizes::total       294861                       # Table walker page sizes translated
system.cpu.itb.walker.walkRequestOrigin_Requested::Data            0                       # Table walker requests started/completed, data/inst
system.cpu.itb.walker.walkRequestOrigin_Requested::Inst       449964                       # Table walker requests started/completed, data/inst
system.cpu.itb.walker.walkRequestOrigin_Requested::total       449964                       # Table walker requests started/completed, data/inst
system.cpu.itb.walker.walkRequestOrigin_Completed::Data            0                       # Table walker requests started/completed, data/inst
system.cpu.itb.walker.walkRequestOrigin_Completed::Inst       294861                       # Table walker requests started/completed, data/inst
system.cpu.itb.walker.walkRequestOrigin_Completed::total       294861                       # Table walker requests started/completed, data/inst
system.cpu.itb.walker.walkRequestOrigin::total       744825                       # Table walker requests started/completed, data/inst
system.cpu.itb.inst_hits                   3673841599                       # ITB inst hits
system.cpu.itb.inst_misses                     449964                       # ITB inst misses
system.cpu.itb.read_hits                            0                       # DTB read hits
system.cpu.itb.read_misses                          0                       # DTB read misses
system.cpu.itb.write_hits                           0                       # DTB write hits
system.cpu.itb.write_misses                         0                       # DTB write misses
system.cpu.itb.flush_tlb                           13                       # Number of times complete TLB was flushed
system.cpu.itb.flush_tlb_mva                        6                       # Number of times TLB was flushed by MVA
system.cpu.itb.flush_tlb_mva_asid              116079                       # Number of times TLB was flushed by MVA & ASID
system.cpu.itb.flush_tlb_asid                     708                       # Number of times TLB was flushed by ASID
system.cpu.itb.flush_entries                    41028                       # Number of entries that have been flushed from TLB
system.cpu.itb.align_faults                         0                       # Number of TLB faults due to alignment restrictions
system.cpu.itb.prefetch_faults                      0                       # Number of TLB faults due to prefetch
system.cpu.itb.domain_faults                        0                       # Number of TLB faults due to domain restrictions
system.cpu.itb.perms_faults                    825611                       # Number of TLB faults due to permissions restrictions
system.cpu.itb.read_accesses                        0                       # DTB read accesses
system.cpu.itb.write_accesses                       0                       # DTB write accesses
system.cpu.itb.inst_accesses               3674291563                       # ITB inst accesses
system.cpu.itb.hits                        3673841599                       # DTB hits
system.cpu.itb.misses                          449964                       # DTB misses
system.cpu.itb.accesses                    3674291563                       # DTB accesses
system.cpu.numPwrStateTransitions              186116                       # Number of power state transitions
system.cpu.pwrStateClkGateDist::samples         93058                       # Distribution of time spent in the clock gated state
system.cpu.pwrStateClkGateDist::mean     605428728240.659912                       # Distribution of time spent in the clock gated state
system.cpu.pwrStateClkGateDist::stdev    441807109086.685486                       # Distribution of time spent in the clock gated state
system.cpu.pwrStateClkGateDist::underflows        24342     26.16%     26.16% # Distribution of time spent in the clock gated state
system.cpu.pwrStateClkGateDist::1000-5e+10         1317      1.42%     27.57% # Distribution of time spent in the clock gated state
system.cpu.pwrStateClkGateDist::5e+10-1e+11         1209      1.30%     28.87% # Distribution of time spent in the clock gated state
system.cpu.pwrStateClkGateDist::1e+11-1.5e+11         1264      1.36%     30.23% # Distribution of time spent in the clock gated state
system.cpu.pwrStateClkGateDist::1.5e+11-2e+11         1267      1.36%     31.59% # Distribution of time spent in the clock gated state
system.cpu.pwrStateClkGateDist::2e+11-2.5e+11         1243      1.34%     32.93% # Distribution of time spent in the clock gated state
system.cpu.pwrStateClkGateDist::2.5e+11-3e+11         1234      1.33%     34.25% # Distribution of time spent in the clock gated state
system.cpu.pwrStateClkGateDist::3e+11-3.5e+11         1243      1.34%     35.59% # Distribution of time spent in the clock gated state
system.cpu.pwrStateClkGateDist::3.5e+11-4e+11         1247      1.34%     36.93% # Distribution of time spent in the clock gated state
system.cpu.pwrStateClkGateDist::4e+11-4.5e+11         1231      1.32%     38.25% # Distribution of time spent in the clock gated state
system.cpu.pwrStateClkGateDist::4.5e+11-5e+11         1183      1.27%     39.52% # Distribution of time spent in the clock gated state
system.cpu.pwrStateClkGateDist::5e+11-5.5e+11         1180      1.27%     40.79% # Distribution of time spent in the clock gated state
system.cpu.pwrStateClkGateDist::5.5e+11-6e+11         1224      1.32%     42.11% # Distribution of time spent in the clock gated state
system.cpu.pwrStateClkGateDist::6e+11-6.5e+11         1212      1.30%     43.41% # Distribution of time spent in the clock gated state
system.cpu.pwrStateClkGateDist::6.5e+11-7e+11         1216      1.31%     44.72% # Distribution of time spent in the clock gated state
system.cpu.pwrStateClkGateDist::7e+11-7.5e+11         1200      1.29%     46.01% # Distribution of time spent in the clock gated state
system.cpu.pwrStateClkGateDist::7.5e+11-8e+11         1217      1.31%     47.31% # Distribution of time spent in the clock gated state
system.cpu.pwrStateClkGateDist::8e+11-8.5e+11         1202      1.29%     48.61% # Distribution of time spent in the clock gated state
system.cpu.pwrStateClkGateDist::8.5e+11-9e+11         1214      1.30%     49.91% # Distribution of time spent in the clock gated state
system.cpu.pwrStateClkGateDist::9e+11-9.5e+11         1206      1.30%     51.21% # Distribution of time spent in the clock gated state
system.cpu.pwrStateClkGateDist::9.5e+11-1e+12        45407     48.79%    100.00% # Distribution of time spent in the clock gated state
system.cpu.pwrStateClkGateDist::min_value          501                       # Distribution of time spent in the clock gated state
system.cpu.pwrStateClkGateDist::max_value 999935904040                       # Distribution of time spent in the clock gated state
system.cpu.pwrStateClkGateDist::total           93058                       # Distribution of time spent in the clock gated state
system.cpu.pwrStateResidencyTicks::ON    11251961886258                       # Cumulative time (in ticks) in various power states
system.cpu.pwrStateResidencyTicks::CLK_GATED 56339986592619328                       # Cumulative time (in ticks) in various power states
system.cpu.numCycles                      22503961614                       # number of cpu cycles simulated
system.cpu.numWorkItemsStarted                      0                       # number of work items this cpu started
system.cpu.numWorkItemsCompleted                    0                       # number of work items this cpu completed
system.cpu.fetch.icacheStallCycles         2978539452                       # Number of cycles fetch is stalled on an Icache miss
system.cpu.fetch.Insts                    10946728688                       # Number of instructions fetch has processed
system.cpu.fetch.Branches                  1948754341                       # Number of branches that fetch encountered
system.cpu.fetch.predictedBranches         1062143208                       # Number of branches that fetch has predicted taken
system.cpu.fetch.Cycles                    9993776603                       # Number of cycles fetch has run and was not squashing or blocked
system.cpu.fetch.SquashCycles               214593352                       # Number of cycles fetch has spent squashing
system.cpu.fetch.TlbCycles                   10835917                       # Number of cycles fetch has spent waiting for tlb
system.cpu.fetch.MiscStallCycles             12651664                       # Number of cycles fetch has spent waiting on interrupts, or bad addresses, or out of MSHRs
system.cpu.fetch.PendingTrapStallCycles      20598313                       # Number of stall cycles due to pending traps
system.cpu.fetch.PendingQuiesceStallCycles      8438530                       # Number of stall cycles due to pending quiesce instructions
system.cpu.fetch.IcacheWaitRetryStallCycles     31209743                       # Number of stall cycles due to full MSHR
system.cpu.fetch.CacheLines                3672945918                       # Number of cache lines fetched
system.cpu.fetch.IcacheSquashes              27156987                       # Number of outstanding Icache misses that were squashed
system.cpu.fetch.ItlbSquashes                  107159                       # Number of outstanding ITLB misses that were squashed
system.cpu.fetch.rateDist::samples        13163346898                       # Number of instructions fetched each cycle (Total)
system.cpu.fetch.rateDist::mean              0.899177                       # Number of instructions fetched each cycle (Total)
system.cpu.fetch.rateDist::stdev             1.188342                       # Number of instructions fetched each cycle (Total)
system.cpu.fetch.rateDist::underflows               0      0.00%      0.00% # Number of instructions fetched each cycle (Total)
system.cpu.fetch.rateDist::0               7393061447     56.16%     56.16% # Number of instructions fetched each cycle (Total)
system.cpu.fetch.rateDist::1               2336179501     17.75%     73.91% # Number of instructions fetched each cycle (Total)
system.cpu.fetch.rateDist::2                802319987      6.10%     80.01% # Number of instructions fetched each cycle (Total)
system.cpu.fetch.rateDist::3               2631785963     19.99%    100.00% # Number of instructions fetched each cycle (Total)
system.cpu.fetch.rateDist::overflows                0      0.00%    100.00% # Number of instructions fetched each cycle (Total)
system.cpu.fetch.rateDist::min_value                0                       # Number of instructions fetched each cycle (Total)
system.cpu.fetch.rateDist::max_value                3                       # Number of instructions fetched each cycle (Total)
system.cpu.fetch.rateDist::total          13163346898                       # Number of instructions fetched each cycle (Total)
system.cpu.fetch.branchRate                  0.086596                       # Number of branch fetches per cycle
system.cpu.fetch.rate                        0.486436                       # Number of inst fetches per cycle
system.cpu.decode.IdleCycles               3170027800                       # Number of cycles decode is idle
system.cpu.decode.BlockedCycles            5420411515                       # Number of cycles decode is blocked
system.cpu.decode.RunCycles                3852485972                       # Number of cycles decode is running
system.cpu.decode.UnblockCycles             635403871                       # Number of cycles decode is unblocking
system.cpu.decode.SquashCycles               85017740                       # Number of cycles decode is squashing
system.cpu.decode.BranchResolved            812826115                       # Number of times decode resolved a branch
system.cpu.decode.BranchMispred              22610067                       # Number of times decode detected a branch misprediction
system.cpu.decode.DecodedInsts            10572291943                       # Number of instructions handled by decode
system.cpu.decode.SquashedInsts             310221141                       # Number of squashed instructions handled by decode
system.cpu.rename.SquashCycles               85017740                       # Number of cycles rename is squashing
system.cpu.rename.IdleCycles               3723215817                       # Number of cycles rename is idle
[...]
system.iocache.blocked_cycles::no_mshrs       1527277                       # number of cycles access was blocked
system.iocache.blocked_cycles::no_targets            0                       # number of cycles access was blocked
system.iocache.blocked::no_mshrs               139761                       # number of cycles access was blocked
system.iocache.blocked::no_targets                  0                       # number of cycles access was blocked
system.iocache.avg_blocked_cycles::no_mshrs    10.927777                       # average number of cycles each access was blocked
system.iocache.avg_blocked_cycles::no_targets          nan                       # average number of cycles each access was blocked
system.iocache.writebacks::writebacks          464936                       # number of writebacks
system.iocache.writebacks::total               464936                       # number of writebacks
system.iocache.ReadReq_mshr_misses::pci_ide       315072                       # number of ReadReq MSHR misses
system.iocache.ReadReq_mshr_misses::total       315072                       # number of ReadReq MSHR misses
system.iocache.WriteLineReq_mshr_misses::pci_ide       465439                       # number of WriteLineReq MSHR misses
system.iocache.WriteLineReq_mshr_misses::total       465439                       # number of WriteLineReq MSHR misses
system.iocache.demand_mshr_misses::pci_ide       780511                       # number of demand (read+write) MSHR misses
system.iocache.demand_mshr_misses::total       780511                       # number of demand (read+write) MSHR misses
system.iocache.overall_mshr_misses::pci_ide       780511                       # number of overall MSHR misses
system.iocache.overall_mshr_misses::total       780511                       # number of overall MSHR misses
system.iocache.ReadReq_mshr_miss_latency::pci_ide  51986393769                       # number of ReadReq MSHR miss cycles
system.iocache.ReadReq_mshr_miss_latency::total  51986393769                       # number of ReadReq MSHR miss cycles
system.iocache.WriteLineReq_mshr_miss_latency::pci_ide  31594678298                       # number of WriteLineReq MSHR miss cycles
system.iocache.WriteLineReq_mshr_miss_latency::total  31594678298                       # number of WriteLineReq MSHR miss cycles
system.iocache.demand_mshr_miss_latency::pci_ide  83581072067                       # number of demand (read+write) MSHR miss cycles
system.iocache.demand_mshr_miss_latency::total  83581072067                       # number of demand (read+write) MSHR miss cycles
system.iocache.overall_mshr_miss_latency::pci_ide  83581072067                       # number of overall MSHR miss cycles
system.iocache.overall_mshr_miss_latency::total  83581072067                       # number of overall MSHR miss cycles
system.iocache.ReadReq_mshr_miss_rate::pci_ide            1                       # mshr miss rate for ReadReq accesses
system.iocache.ReadReq_mshr_miss_rate::total            1                       # mshr miss rate for ReadReq accesses
system.iocache.WriteLineReq_mshr_miss_rate::pci_ide     0.999981                       # mshr miss rate for WriteLineReq accesses
system.iocache.WriteLineReq_mshr_miss_rate::total     0.999981                       # mshr miss rate for WriteLineReq accesses
system.iocache.demand_mshr_miss_rate::pci_ide     0.999988                       # mshr miss rate for demand accesses
system.iocache.demand_mshr_miss_rate::total     0.999988                       # mshr miss rate for demand accesses
system.iocache.overall_mshr_miss_rate::pci_ide     0.999988                       # mshr miss rate for overall accesses
system.iocache.overall_mshr_miss_rate::total     0.999988                       # mshr miss rate for overall accesses
system.iocache.ReadReq_avg_mshr_miss_latency::pci_ide 164998.456762                       # average ReadReq mshr miss latency
system.iocache.ReadReq_avg_mshr_miss_latency::total 164998.456762                       # average ReadReq mshr miss latency
system.iocache.WriteLineReq_avg_mshr_miss_latency::pci_ide 67881.458791                       # average WriteLineReq mshr miss latency
system.iocache.WriteLineReq_avg_mshr_miss_latency::total 67881.458791                       # average WriteLineReq mshr miss latency
system.iocache.demand_avg_mshr_miss_latency::pci_ide 107085.066152                       # average overall mshr miss latency
system.iocache.demand_avg_mshr_miss_latency::total 107085.066152                       # average overall mshr miss latency
system.iocache.overall_avg_mshr_miss_latency::pci_ide 107085.066152                       # average overall mshr miss latency
system.iocache.overall_avg_mshr_miss_latency::total 107085.066152                       # average overall mshr miss latency
system.membus.snoop_filter.tot_requests     318440502                       # Total number of requests made to the snoop filter.
system.membus.snoop_filter.hit_single_requests    158893034                       # Number of requests hitting in the snoop filter with a single holder of the requested data.
system.membus.snoop_filter.hit_multi_requests      1332282                       # Number of requests hitting in the snoop filter with multiple (>1) holders of the requested data.
system.membus.snoop_filter.tot_snoops               0                       # Total number of snoops made to the snoop filter.
system.membus.snoop_filter.hit_single_snoops            0                       # Number of snoops hitting in the snoop filter with a single holder of the requested data.
system.membus.snoop_filter.hit_multi_snoops            0                       # Number of snoops hitting in the snoop filter with multiple (>1) holders of the requested data.
system.membus.pwrStateResidencyTicks::UNDEFINED 56351238554503000                       # Cumulative time (in ticks) in various power states
system.membus.trans_dist::ReadReq              206895                       # Transaction distribution
system.membus.trans_dist::ReadResp          132396677                       # Transaction distribution
system.membus.trans_dist::WriteReq             128790                       # Transaction distribution
system.membus.trans_dist::WriteResp            128790                       # Transaction distribution
system.membus.trans_dist::WritebackDirty     33366487                       # Transaction distribution
system.membus.trans_dist::WritebackClean    123355211                       # Transaction distribution
system.membus.trans_dist::WriteClean          1931144                       # Transaction distribution
system.membus.trans_dist::CleanEvict           315052                       # Transaction distribution
system.membus.trans_dist::UpgradeReq           126579                       # Transaction distribution
system.membus.trans_dist::SCUpgradeReq          58185                       # Transaction distribution
system.membus.trans_dist::UpgradeResp               2                       # Transaction distribution
system.membus.trans_dist::ReadExReq           7525375                       # Transaction distribution
system.membus.trans_dist::ReadExResp          7525375                       # Transaction distribution
system.membus.trans_dist::ReadCleanReq       99343214                       # Transaction distribution
system.membus.trans_dist::ReadSharedReq      32846568                       # Transaction distribution
system.membus.trans_dist::CleanSharedReq           70                       # Transaction distribution
system.membus.trans_dist::CleanInvalidReq      2034371                       # Transaction distribution
system.membus.trans_dist::InvalidateReq      19441237                       # Transaction distribution
system.membus.trans_dist::InvalidateResp          465                       # Transaction distribution
system.membus.pkt_count_system.iocache.mem_side::system.mem_ctrls.port      1868670                       # Packet count per connected master and slave (bytes)
system.membus.pkt_count_system.iocache.mem_side::total      1868670                       # Packet count per connected master and slave (bytes)
system.membus.pkt_count_system.cpu.icache.mem_side::system.bootmem.port           52                       # Packet count per connected master and slave (bytes)
system.membus.pkt_count_system.cpu.icache.mem_side::system.mem_ctrls.port    295010391                       # Packet count per connected master and slave (bytes)
system.membus.pkt_count_system.cpu.icache.mem_side::total    295010443                       # Packet count per connected master and slave (bytes)
system.membus.pkt_count_system.cpu.dcache.mem_side::system.bridge.slave       193546                       # Packet count per connected master and slave (bytes)
system.membus.pkt_count_system.cpu.dcache.mem_side::system.bootmem.port           12                       # Packet count per connected master and slave (bytes)
system.membus.pkt_count_system.cpu.dcache.mem_side::system.realview.gic.pio       468510                       # Packet count per connected master and slave (bytes)
system.membus.pkt_count_system.cpu.dcache.mem_side::system.mem_ctrls.port    160341964                       # Packet count per connected master and slave (bytes)
system.membus.pkt_count_system.cpu.dcache.mem_side::total    161004032                       # Packet count per connected master and slave (bytes)
system.membus.pkt_count_system.cpu.itb_walker_cache.mem_side::system.mem_ctrls.port       451970                       # Packet count per connected master and slave (bytes)
system.membus.pkt_count_system.cpu.itb_walker_cache.mem_side::total       451970                       # Packet count per connected master and slave (bytes)
system.membus.pkt_count_system.cpu.dtb_walker_cache.mem_side::system.mem_ctrls.port      2191959                       # Packet count per connected master and slave (bytes)
system.membus.pkt_count_system.cpu.dtb_walker_cache.mem_side::total      2191959                       # Packet count per connected master and slave (bytes)
system.membus.pkt_count::total              460527074                       # Packet count per connected master and slave (bytes)
system.membus.pkt_size_system.iocache.mem_side::system.mem_ctrls.port     49478848                       # Cumulative packet size per connected master and slave (bytes)
system.membus.pkt_size_system.iocache.mem_side::total     49478848                       # Cumulative packet size per connected master and slave (bytes)
system.membus.pkt_size_system.cpu.icache.mem_side::system.bootmem.port          416                       # Cumulative packet size per connected master and slave (bytes)
system.membus.pkt_size_system.cpu.icache.mem_side::system.mem_ctrls.port  12586961152                       # Cumulative packet size per connected master and slave (bytes)
system.membus.pkt_size_system.cpu.icache.mem_side::total  12586961568                       # Cumulative packet size per connected master and slave (bytes)
system.membus.pkt_size_system.cpu.dcache.mem_side::system.bridge.slave       158239                       # Cumulative packet size per connected master and slave (bytes)
system.membus.pkt_size_system.cpu.dcache.mem_side::system.bootmem.port           44                       # Cumulative packet size per connected master and slave (bytes)
system.membus.pkt_size_system.cpu.dcache.mem_side::system.realview.gic.pio       937020                       # Cumulative packet size per connected master and slave (bytes)
system.membus.pkt_size_system.cpu.dcache.mem_side::system.mem_ctrls.port   6341456036                       # Cumulative packet size per connected master and slave (bytes)
system.membus.pkt_size_system.cpu.dcache.mem_side::total   6342551339                       # Cumulative packet size per connected master and slave (bytes)
system.membus.pkt_size_system.cpu.itb_walker_cache.mem_side::system.mem_ctrls.port     17742592                       # Cumulative packet size per connected master and slave (bytes)
system.membus.pkt_size_system.cpu.itb_walker_cache.mem_side::total     17742592                       # Cumulative packet size per connected master and slave (bytes)
system.membus.pkt_size_system.cpu.dtb_walker_cache.mem_side::system.mem_ctrls.port     86978112                       # Cumulative packet size per connected master and slave (bytes)
system.membus.pkt_size_system.cpu.dtb_walker_cache.mem_side::total     86978112                       # Cumulative packet size per connected master and slave (bytes)
system.membus.pkt_size::total             19083712459                       # Cumulative packet size per connected master and slave (bytes)
system.membus.snoops                           203413                       # Total snoops (count)
system.membus.snoopTraffic                   12988544                       # Total snoop traffic (bytes)
system.membus.snoop_fanout::samples         161711284                       # Request fanout histogram
system.membus.snoop_fanout::mean             0.008683                       # Request fanout histogram
system.membus.snoop_fanout::stdev            0.104823                       # Request fanout histogram
system.membus.snoop_fanout::underflows              0      0.00%      0.00% # Request fanout histogram
system.membus.snoop_fanout::0               160499637     99.25%     99.25% # Request fanout histogram
system.membus.snoop_fanout::1                 1019183      0.63%     99.88% # Request fanout histogram
system.membus.snoop_fanout::2                  192460      0.12%    100.00% # Request fanout histogram
system.membus.snoop_fanout::3                       4      0.00%    100.00% # Request fanout histogram
system.membus.snoop_fanout::4                       0      0.00%    100.00% # Request fanout histogram
system.membus.snoop_fanout::5                       0      0.00%    100.00% # Request fanout histogram
system.membus.snoop_fanout::overflows               0      0.00%    100.00% # Request fanout histogram
system.membus.snoop_fanout::min_value               0                       # Request fanout histogram
system.membus.snoop_fanout::max_value               3                       # Request fanout histogram
system.membus.snoop_fanout::total           161711284                       # Request fanout histogram
system.membus.reqLayer0.occupancy           162990999                       # Layer occupancy (ticks)
system.membus.reqLayer0.utilization               0.0                       # Layer utilization (%)
system.membus.reqLayer1.occupancy               43500                       # Layer occupancy (ticks)
system.membus.reqLayer1.utilization               0.0                       # Layer utilization (%)
system.membus.reqLayer2.occupancy           419213498                       # Layer occupancy (ticks)
system.membus.reqLayer2.utilization               0.0                       # Layer utilization (%)
system.membus.reqLayer6.occupancy        1025073038693                       # Layer occupancy (ticks)
system.membus.reqLayer6.utilization               0.0                       # Layer utilization (%)
system.membus.respLayer2.occupancy         1592481831                       # Layer occupancy (ticks)
system.membus.respLayer2.utilization              0.0                       # Layer utilization (%)
system.membus.respLayer3.occupancy       523044139032                       # Layer occupancy (ticks)
system.membus.respLayer3.utilization              0.0                       # Layer utilization (%)
system.membus.respLayer4.occupancy       212858975505                       # Layer occupancy (ticks)
system.membus.respLayer4.utilization              0.0                       # Layer utilization (%)
system.membus.respLayer5.occupancy          948857935                       # Layer occupancy (ticks)
system.membus.respLayer5.utilization              0.0                       # Layer utilization (%)
system.membus.respLayer6.occupancy         4468604223                       # Layer occupancy (ticks)
system.membus.respLayer6.utilization              0.0                       # Layer utilization (%)
system.membus.badaddr_responder.pwrStateResidencyTicks::UNDEFINED 56351238554503000                       # Cumulative time (in ticks) in various power states
system.realview.pci_host.pwrStateResidencyTicks::UNDEFINED 56351238554503000                       # Cumulative time (in ticks) in various power states
system.pci_ide.pwrStateResidencyTicks::UNDEFINED 56351238554503000                       # Cumulative time (in ticks) in various power states
system.realview.clock24MHz.voltage_domain.voltage     3.300000                       # Voltage in Volts
system.realview.clock24MHz.clock                41667                       # Clock period in ticks
system.realview.realview_io.pwrStateResidencyTicks::UNDEFINED 56351238554503000                       # Cumulative time (in ticks) in various power states
system.realview.dcc.osc_cpu.clock               16667                       # Clock period in ticks
system.realview.dcc.osc_ddr.clock               25000                       # Clock period in ticks
system.realview.dcc.osc_hsbm.clock              25000                       # Clock period in ticks
system.realview.dcc.osc_pxl.clock               42105                       # Clock period in ticks
system.realview.dcc.osc_smb.clock               20000                       # Clock period in ticks
system.realview.dcc.osc_sys.clock               16667                       # Clock period in ticks
system.realview.energy_ctrl.pwrStateResidencyTicks::UNDEFINED 56351238554503000                       # Cumulative time (in ticks) in various power states
system.realview.gic.pwrStateResidencyTicks::UNDEFINED 56351238554503000                       # Cumulative time (in ticks) in various power states
system.realview.generic_timer.pwrStateResidencyTicks::UNDEFINED 56351238554503000                       # Cumulative time (in ticks) in various power states
system.realview.gicv2m.pwrStateResidencyTicks::UNDEFINED 56351238554503000                       # Cumulative time (in ticks) in various power states
system.realview.hdlcd.pwrStateResidencyTicks::UNDEFINED 56351238554503000                       # Cumulative time (in ticks) in various power states
system.realview.kmi0.pwrStateResidencyTicks::UNDEFINED 56351238554503000                       # Cumulative time (in ticks) in various power states
system.realview.kmi1.pwrStateResidencyTicks::UNDEFINED 56351238554503000                       # Cumulative time (in ticks) in various power states
system.realview.mcc.osc_clcd.clock              42105                       # Clock period in ticks
system.realview.mcc.osc_mcc.clock               20000                       # Clock period in ticks
system.realview.mcc.osc_peripheral.clock        41667                       # Clock period in ticks
system.realview.mcc.osc_system_bus.clock        41667                       # Clock period in ticks
system.realview.rtc.pwrStateResidencyTicks::UNDEFINED 56351238554503000                       # Cumulative time (in ticks) in various power states
system.realview.uart0.pwrStateResidencyTicks::UNDEFINED 56351238554503000                       # Cumulative time (in ticks) in various power states
system.realview.vgic.pwrStateResidencyTicks::UNDEFINED 56351238554503000                       # Cumulative time (in ticks) in various power states
system.cpu.kern.inst.arm                            0                       # number of arm instructions executed
system.cpu.kern.inst.quiesce                    93058                       # number of quiesce instructions executed

---------- End Simulation Statistics   ----------