
---------- Begin Simulation Statistics ----------
sim_seconds                              24846.579347                       # Number of seconds simulated
sim_ticks                                24846579347237000                       # Number of ticks simulated
final_tick                               24846579347237000                       # Number of ticks from beginning of simulation (restored from checkpoints and never reset)
sim_freq                                 1000000000000                       # Frequency of simulated ticks
host_inst_rate                                 196269                       # Simulator instruction rate (inst/s)
host_op_rate                                   211465                       # Simulator op (including micro ops) rate (op/s)
host_tick_rate                           639103664393                       # Simulator tick rate (ticks/s)
host_mem_usage                                 989520                       # Number of bytes of host memory used
host_seconds                                 38877.23                       # Real time elapsed on the host
sim_insts                                  7630390454                       # Number of instructions simulated
sim_ops                                    8221163724                       # Number of ops (including micro ops) simulated
system.voltage_domain.voltage                       1                       # Voltage in Volts
system.clk_domain.clock                          1000                       # Clock period in ticks
system.bootmem.pwrStateResidencyTicks::UNDEFINED 24846579347237000                       # Cumulative time (in ticks) in various power states
system.bootmem.bytes_read::cpu.inst               416                       # Number of bytes read from this memory
system.bootmem.bytes_read::cpu.data                44                       # Number of bytes read from this memory
system.bootmem.bytes_read::total                  460                       # Number of bytes read from this memory
system.bootmem.bytes_inst_read::cpu.inst          416                       # Number of instructions bytes read from this memory
system.bootmem.bytes_inst_read::total             416                       # Number of instructions bytes read from this memory
system.bootmem.num_reads::cpu.inst                 26                       # Number of read requests responded to by this memory
system.bootmem.num_reads::cpu.data                  6                       # Number of read requests responded to by this memory
system.bootmem.num_reads::total                    32                       # Number of read requests responded to by this memory
system.bootmem.bw_read::cpu.inst                    0                       # Total read bandwidth from this memory (bytes/s)
system.bootmem.bw_read::cpu.data                    0                       # Total read bandwidth from this memory (bytes/s)
system.bootmem.bw_read::total                       0                       # Total read bandwidth from this memory (bytes/s)
system.bootmem.bw_inst_read::cpu.inst               0                       # Instruction read bandwidth from this memory (bytes/s)
system.bootmem.bw_inst_read::total                  0                       # Instruction read bandwidth from this memory (bytes/s)
system.bootmem.bw_total::cpu.inst                   0                       # Total bandwidth to/from this memory (bytes/s)
system.bootmem.bw_total::cpu.data                   0                       # Total bandwidth to/from this memory (bytes/s)
system.bootmem.bw_total::total                      0                       # Total bandwidth to/from this memory (bytes/s)
system.mem_ctrls.pwrStateResidencyTicks::UNDEFINED 24846579347237000                       # Cumulative time (in ticks) in various power states
system.mem_ctrls.bytes_read::cpu.dtb.walker     42937344                       # Number of bytes read from this memory
system.mem_ctrls.bytes_read::cpu.itb.walker      9137280                       # Number of bytes read from this memory
system.mem_ctrls.bytes_read::cpu.inst      4198959552                       # Number of bytes read from this memory
system.mem_ctrls.bytes_read::cpu.data      2472797504                       # Number of bytes read from this memory
system.mem_ctrls.bytes_read::pci_ide         19689856                       # Number of bytes read from this memory
system.mem_ctrls.bytes_read::total         6743521536                       # Number of bytes read from this memory
system.mem_ctrls.bytes_inst_read::cpu.inst   4198959552                       # Number of instructions bytes read from this memory
system.mem_ctrls.bytes_inst_read::total    4198959552                       # Number of instructions bytes read from this memory
system.mem_ctrls.bytes_written::writebacks   2201521920                       # Number of bytes written to this memory
system.mem_ctrls.bytes_written::cpu.data        20580                       # Number of bytes written to this memory
system.mem_ctrls.bytes_written::total      2201542500                       # Number of bytes written to this memory
system.mem_ctrls.num_reads::cpu.dtb.walker       670896                       # Number of read requests responded to by this memory
system.mem_ctrls.num_reads::cpu.itb.walker       142770                       # Number of read requests responded to by this memory
system.mem_ctrls.num_reads::cpu.inst         65610276                       # Number of read requests responded to by this memory
system.mem_ctrls.num_reads::cpu.data         38637468                       # Number of read requests responded to by this memory
system.mem_ctrls.num_reads::pci_ide            307654                       # Number of read requests responded to by this memory
system.mem_ctrls.num_reads::total           105369064                       # Number of read requests responded to by this memory
system.mem_ctrls.num_writes::writebacks      34398780                       # Number of write requests responded to by this memory
system.mem_ctrls.num_writes::cpu.data            2573                       # Number of write requests responded to by this memory
system.mem_ctrls.num_writes::total           34401353                       # Number of write requests responded to by this memory
system.mem_ctrls.bw_read::cpu.dtb.walker         1728                       # Total read bandwidth from this memory (bytes/s)
system.mem_ctrls.bw_read::cpu.itb.walker          368                       # Total read bandwidth from this memory (bytes/s)
system.mem_ctrls.bw_read::cpu.inst             168995                       # Total read bandwidth from this memory (bytes/s)
system.mem_ctrls.bw_read::cpu.data              99523                       # Total read bandwidth from this memory (bytes/s)
system.mem_ctrls.bw_read::pci_ide                 792                       # Total read bandwidth from this memory (bytes/s)
system.mem_ctrls.bw_read::total                271406                       # Total read bandwidth from this memory (bytes/s)
system.mem_ctrls.bw_inst_read::cpu.inst        168995                       # Instruction read bandwidth from this memory (bytes/s)
system.mem_ctrls.bw_inst_read::total           168995                       # Instruction read bandwidth from this memory (bytes/s)
system.mem_ctrls.bw_write::writebacks           88605                       # Write bandwidth from this memory (bytes/s)
system.mem_ctrls.bw_write::cpu.data                 1                       # Write bandwidth from this memory (bytes/s)
system.mem_ctrls.bw_write::total                88605                       # Write bandwidth from this memory (bytes/s)
system.mem_ctrls.bw_total::writebacks           88605                       # Total bandwidth to/from this memory (bytes/s)
system.mem_ctrls.bw_total::cpu.dtb.walker         1728                       # Total bandwidth to/from this memory (bytes/s)
system.mem_ctrls.bw_total::cpu.itb.walker          368                       # Total bandwidth to/from this memory (bytes/s)
system.mem_ctrls.bw_total::cpu.inst            168995                       # Total bandwidth to/from this memory (bytes/s)
system.mem_ctrls.bw_total::cpu.data             99523                       # Total bandwidth to/from this memory (bytes/s)
system.mem_ctrls.bw_total::pci_ide                792                       # Total bandwidth to/from this memory (bytes/s)
system.mem_ctrls.bw_total::total               360012                       # Total bandwidth to/from this memory (bytes/s)
system.mem_ctrls.readReqs                   105369064                       # Number of read requests accepted
system.mem_ctrls.writeReqs                  124055006                       # Number of write requests accepted
system.mem_ctrls.readBursts                 105369064                       # Number of DRAM read bursts, including those serviced by the write queue
system.mem_ctrls.writeBursts                124055006                       # Number of DRAM write bursts, including those merged in the write queue
system.mem_ctrls.bytesReadDRAM             5890843392                       # Total number of bytes read from DRAM
system.mem_ctrls.bytesReadWrQ               852776704                       # Total number of bytes read from write queue
system.mem_ctrls.bytesWritten              7512160512                       # Total number of bytes written to DRAM
system.mem_ctrls.bytesReadSys              6743521536                       # Total read bytes from the system interface side
system.mem_ctrls.bytesWrittenSys           7939376292                       # Total written bytes from the system interface side
system.mem_ctrls.servicedByWrQ               13324636                       # Number of DRAM read bursts serviced by the write queue
system.mem_ctrls.mergedWrBursts               6677470                       # Number of DRAM write bursts merged with an existing one
system.mem_ctrls.neitherReadNorWriteReqs            0                       # Number of requests that are neither read nor write
system.mem_ctrls.perBankRdBursts::0           5818054                       # Per bank write bursts
system.mem_ctrls.perBankRdBursts::1           5172207                       # Per bank write bursts
system.mem_ctrls.perBankRdBursts::2           5668385                       # Per bank write bursts
system.mem_ctrls.perBankRdBursts::3           4333792                       # Per bank write bursts
system.mem_ctrls.perBankRdBursts::4           3312581                       # Per bank write bursts
system.mem_ctrls.perBankRdBursts::5           7969380                       # Per bank write bursts
system.mem_ctrls.perBankRdBursts::6           4947693                       # Per bank write bursts
system.mem_ctrls.perBankRdBursts::7           5139408                       # Per bank write bursts
system.mem_ctrls.perBankRdBursts::8           4751438                       # Per bank write bursts
system.mem_ctrls.perBankRdBursts::9           5726364                       # Per bank write bursts
system.mem_ctrls.perBankRdBursts::10          7576601                       # Per bank write bursts
system.mem_ctrls.perBankRdBursts::11          5126787                       # Per bank write bursts
system.mem_ctrls.perBankRdBursts::12          7896516                       # Per bank write bursts
system.mem_ctrls.perBankRdBursts::13          5448269                       # Per bank write bursts
system.mem_ctrls.perBankRdBursts::14          8386939                       # Per bank write bursts
system.mem_ctrls.perBankRdBursts::15          4770014                       # Per bank write bursts
system.mem_ctrls.perBankWrBursts::0           6412650                       # Per bank write bursts
system.mem_ctrls.perBankWrBursts::1           7384329                       # Per bank write bursts
system.mem_ctrls.perBankWrBursts::2           6327887                       # Per bank write bursts
system.mem_ctrls.perBankWrBursts::3           6422601                       # Per bank write bursts
system.mem_ctrls.perBankWrBursts::4           3945627                       # Per bank write bursts
system.mem_ctrls.perBankWrBursts::5          11216565                       # Per bank write bursts
system.mem_ctrls.perBankWrBursts::6           5603953                       # Per bank write bursts
system.mem_ctrls.perBankWrBursts::7           7382199                       # Per bank write bursts
system.mem_ctrls.perBankWrBursts::8           5350058                       # Per bank write bursts
system.mem_ctrls.perBankWrBursts::9           8240481                       # Per bank write bursts
system.mem_ctrls.perBankWrBursts::10          8347185                       # Per bank write bursts
system.mem_ctrls.perBankWrBursts::11          7356055                       # Per bank write bursts
system.mem_ctrls.perBankWrBursts::12          8541838                       # Per bank write bursts
system.mem_ctrls.perBankWrBursts::13          8302771                       # Per bank write bursts
system.mem_ctrls.perBankWrBursts::14          9334797                       # Per bank write bursts
system.mem_ctrls.perBankWrBursts::15          7208512                       # Per bank write bursts
system.mem_ctrls.numRdRetry                         0                       # Number of times read queue was full causing retry
system.mem_ctrls.numWrRetry                     31463                       # Number of times write queue was full causing retry
system.mem_ctrls.totGap                  24846579346270000                       # Total gap between requests
system.mem_ctrls.readPktSize::0                     0                       # Read request sizes (log2)
system.mem_ctrls.readPktSize::1                     0                       # Read request sizes (log2)
system.mem_ctrls.readPktSize::2                     0                       # Read request sizes (log2)
system.mem_ctrls.readPktSize::3                     8                       # Read request sizes (log2)
system.mem_ctrls.readPktSize::4                  2044                       # Read request sizes (log2)
system.mem_ctrls.readPktSize::5                     0                       # Read request sizes (log2)
system.mem_ctrls.readPktSize::6             105367012                       # Read request sizes (log2)
system.mem_ctrls.writePktSize::0                    0                       # Write request sizes (log2)
system.mem_ctrls.writePktSize::1                    0                       # Write request sizes (log2)
system.mem_ctrls.writePktSize::2                    1                       # Write request sizes (log2)
system.mem_ctrls.writePktSize::3                 2572                       # Write request sizes (log2)
system.mem_ctrls.writePktSize::4                    0                       # Write request sizes (log2)
system.mem_ctrls.writePktSize::5                    0                       # Write request sizes (log2)
system.mem_ctrls.writePktSize::6            124052433                       # Write request sizes (log2)
system.mem_ctrls.rdQLenPdf::0                70405768                       # What read queue length does an incoming req see
system.mem_ctrls.rdQLenPdf::1                16525992                       # What read queue length does an incoming req see
system.mem_ctrls.rdQLenPdf::2                 3533810                       # What read queue length does an incoming req see
system.mem_ctrls.rdQLenPdf::3                  826367                       # What read queue length does an incoming req see
system.mem_ctrls.rdQLenPdf::4                  334986                       # What read queue length does an incoming req see
system.mem_ctrls.rdQLenPdf::5                  168808                       # What read queue length does an incoming req see
system.mem_ctrls.rdQLenPdf::6                   29211                       # What read queue length does an incoming req see
system.mem_ctrls.rdQLenPdf::7                   22197                       # What read queue length does an incoming req see
system.mem_ctrls.rdQLenPdf::8                   34786                       # What read queue length does an incoming req see
system.mem_ctrls.rdQLenPdf::9                   44471                       # What read queue length does an incoming req see
system.mem_ctrls.rdQLenPdf::10                  28127                       # What read queue length does an incoming req see
system.mem_ctrls.rdQLenPdf::11                  19615                       # What read queue length does an incoming req see
system.mem_ctrls.rdQLenPdf::12                  12310                       # What read queue length does an incoming req see
system.mem_ctrls.rdQLenPdf::13                  10372                       # What read queue length does an incoming req see
system.mem_ctrls.rdQLenPdf::14                   8104                       # What read queue length does an incoming req see
system.mem_ctrls.rdQLenPdf::15                   7414                       # What read queue length does an incoming req see
system.mem_ctrls.rdQLenPdf::16                   6928                       # What read queue length does an incoming req see
system.mem_ctrls.rdQLenPdf::17                   6629                       # What read queue length does an incoming req see
system.mem_ctrls.rdQLenPdf::18                   6626                       # What read queue length does an incoming req see
system.mem_ctrls.rdQLenPdf::19                   6540                       # What read queue length does an incoming req see
system.mem_ctrls.rdQLenPdf::20                   4320                       # What read queue length does an incoming req see
system.mem_ctrls.rdQLenPdf::21                    873                       # What read queue length does an incoming req see
system.mem_ctrls.rdQLenPdf::22                    153                       # What read queue length does an incoming req see
system.mem_ctrls.rdQLenPdf::23                     18                       # What read queue length does an incoming req see
system.mem_ctrls.rdQLenPdf::24                      3                       # What read queue length does an incoming req see
system.mem_ctrls.rdQLenPdf::25                      0                       # What read queue length does an incoming req see
system.mem_ctrls.rdQLenPdf::26                      0                       # What read queue length does an incoming req see
system.mem_ctrls.rdQLenPdf::27                      0                       # What read queue length does an incoming req see
system.mem_ctrls.rdQLenPdf::28                      0                       # What read queue length does an incoming req see
system.mem_ctrls.rdQLenPdf::29                      0                       # What read queue length does an incoming req see
system.mem_ctrls.rdQLenPdf::30                      0                       # What read queue length does an incoming req see
system.mem_ctrls.rdQLenPdf::31                      0                       # What read queue length does an incoming req see
system.mem_ctrls.wrQLenPdf::0                       1                       # What write queue length does an incoming req see
system.mem_ctrls.wrQLenPdf::1                       1                       # What write queue length does an incoming req see
system.mem_ctrls.wrQLenPdf::2                       1                       # What write queue length does an incoming req see
system.mem_ctrls.wrQLenPdf::3                       1                       # What write queue length does an incoming req see
system.mem_ctrls.wrQLenPdf::4                       1                       # What write queue length does an incoming req see
system.mem_ctrls.wrQLenPdf::5                       1                       # What write queue length does an incoming req see
system.mem_ctrls.wrQLenPdf::6                       1                       # What write queue length does an incoming req see
system.mem_ctrls.wrQLenPdf::7                       1                       # What write queue length does an incoming req see
system.mem_ctrls.wrQLenPdf::8                       1                       # What write queue length does an incoming req see
system.mem_ctrls.wrQLenPdf::9                       1                       # What write queue length does an incoming req see
system.mem_ctrls.wrQLenPdf::10                      1                       # What write queue length does an incoming req see
system.mem_ctrls.wrQLenPdf::11                      1                       # What write queue length does an incoming req see
system.mem_ctrls.wrQLenPdf::12                      1                       # What write queue length does an incoming req see
system.mem_ctrls.wrQLenPdf::13                      1                       # What write queue length does an incoming req see
system.mem_ctrls.wrQLenPdf::14                      1                       # What write queue length does an incoming req see
system.mem_ctrls.wrQLenPdf::15                 663919                       # What write queue length does an incoming req see
system.mem_ctrls.wrQLenPdf::16                 948666                       # What write queue length does an incoming req see
system.mem_ctrls.wrQLenPdf::17                4606848                       # What write queue length does an incoming req see
system.mem_ctrls.wrQLenPdf::18                5953941                       # What write queue length does an incoming req see
system.mem_ctrls.wrQLenPdf::19                6463150                       # What write queue length does an incoming req see
system.mem_ctrls.wrQLenPdf::20                6668871                       # What write queue length does an incoming req see
system.mem_ctrls.wrQLenPdf::21                6820792                       # What write queue length does an incoming req see
system.mem_ctrls.wrQLenPdf::22                6994397                       # What write queue length does an incoming req see
system.mem_ctrls.wrQLenPdf::23                7181050                       # What write queue length does an incoming req see
system.mem_ctrls.wrQLenPdf::24                7308069                       # What write queue length does an incoming req see
system.mem_ctrls.wrQLenPdf::25                7513971                       # What write queue length does an incoming req see
system.mem_ctrls.wrQLenPdf::26                7537434                       # What write queue length does an incoming req see
system.mem_ctrls.wrQLenPdf::27                7663734                       # What write queue length does an incoming req see
system.mem_ctrls.wrQLenPdf::28                7321290                       # What write queue length does an incoming req see
system.mem_ctrls.wrQLenPdf::29                7187851                       # What write queue length does an incoming req see
system.mem_ctrls.wrQLenPdf::30                6993101                       # What write queue length does an incoming req see
system.mem_ctrls.wrQLenPdf::31                6806186                       # What write queue length does an incoming req see
system.mem_ctrls.wrQLenPdf::32                6739656                       # What write queue length does an incoming req see
system.mem_ctrls.wrQLenPdf::33                 554178                       # What write queue length does an incoming req see
system.mem_ctrls.wrQLenPdf::34                 493499                       # What write queue length does an incoming req see
system.mem_ctrls.wrQLenPdf::35                 386870                       # What write queue length does an incoming req see
system.mem_ctrls.wrQLenPdf::36                 315318                       # What write queue length does an incoming req see
system.mem_ctrls.wrQLenPdf::37                 267433                       # What write queue length does an incoming req see
system.mem_ctrls.wrQLenPdf::38                 235793                       # What write queue length does an incoming req see
system.mem_ctrls.wrQLenPdf::39                 212095                       # What write queue length does an incoming req see
system.mem_ctrls.wrQLenPdf::40                 215744                       # What write queue length does an incoming req see
system.mem_ctrls.wrQLenPdf::41                 201806                       # What write queue length does an incoming req see
system.mem_ctrls.wrQLenPdf::42                 210282                       # What write queue length does an incoming req see
system.mem_ctrls.wrQLenPdf::43                 199388                       # What write queue length does an incoming req see
system.mem_ctrls.wrQLenPdf::44                 187508                       # What write queue length does an incoming req see
system.mem_ctrls.wrQLenPdf::45                 178373                       # What write queue length does an incoming req see
system.mem_ctrls.wrQLenPdf::46                 182767                       # What write queue length does an incoming req see
system.mem_ctrls.wrQLenPdf::47                 185149                       # What write queue length does an incoming req see
system.mem_ctrls.wrQLenPdf::48                 188879                       # What write queue length does an incoming req see
system.mem_ctrls.wrQLenPdf::49                 182621                       # What write queue length does an incoming req see
system.mem_ctrls.wrQLenPdf::50                 155277                       # What write queue length does an incoming req see
system.mem_ctrls.wrQLenPdf::51                 142878                       # What write queue length does an incoming req see
system.mem_ctrls.wrQLenPdf::52                 129642                       # What write queue length does an incoming req see
system.mem_ctrls.wrQLenPdf::53                 119902                       # What write queue length does an incoming req see
system.mem_ctrls.wrQLenPdf::54                 104927                       # What write queue length does an incoming req see
system.mem_ctrls.wrQLenPdf::55                 125324                       # What write queue length does an incoming req see
system.mem_ctrls.wrQLenPdf::56                 124969                       # What write queue length does an incoming req see
system.mem_ctrls.wrQLenPdf::57                 115782                       # What write queue length does an incoming req see
system.mem_ctrls.wrQLenPdf::58                 107107                       # What write queue length does an incoming req see
system.mem_ctrls.wrQLenPdf::59                  92510                       # What write queue length does an incoming req see
system.mem_ctrls.wrQLenPdf::60                  79881                       # What write queue length does an incoming req see
system.mem_ctrls.wrQLenPdf::61                 102951                       # What write queue length does an incoming req see
system.mem_ctrls.wrQLenPdf::62                  97343                       # What write queue length does an incoming req see
system.mem_ctrls.wrQLenPdf::63                 108399                       # What write queue length does an incoming req see
system.mem_ctrls.bytesPerActivate::samples     70890546                       # Bytes accessed per row activation
system.mem_ctrls.bytesPerActivate::mean    189.066144                       # Bytes accessed per row activation
system.mem_ctrls.bytesPerActivate::gmean   131.444153                       # Bytes accessed per row activation
system.mem_ctrls.bytesPerActivate::stdev   204.139776                       # Bytes accessed per row activation
system.mem_ctrls.bytesPerActivate::0-127     30820829     43.48%     43.48% # Bytes accessed per row activation
system.mem_ctrls.bytesPerActivate::128-255     23106682     32.59%     76.07% # Bytes accessed per row activation
system.mem_ctrls.bytesPerActivate::256-383      8064365     11.38%     87.45% # Bytes accessed per row activation
system.mem_ctrls.bytesPerActivate::384-511      3379089      4.77%     92.21% # Bytes accessed per row activation
system.mem_ctrls.bytesPerActivate::512-639      1699902      2.40%     94.61% # Bytes accessed per row activation
system.mem_ctrls.bytesPerActivate::640-767       942575      1.33%     95.94% # Bytes accessed per row activation
system.mem_ctrls.bytesPerActivate::768-895       601865      0.85%     96.79% # Bytes accessed per row activation
system.mem_ctrls.bytesPerActivate::896-1023       377191      0.53%     97.32% # Bytes accessed per row activation
system.mem_ctrls.bytesPerActivate::1024-1151      1898048      2.68%    100.00% # Bytes accessed per row activation
system.mem_ctrls.bytesPerActivate::total     70890546                       # Bytes accessed per row activation
system.mem_ctrls.rdPerTurnAround::samples      6202917                       # Reads before turning the bus around for writes
system.mem_ctrls.rdPerTurnAround::mean      14.838892                       # Reads before turning the bus around for writes
system.mem_ctrls.rdPerTurnAround::stdev      5.092559                       # Reads before turning the bus around for writes
system.mem_ctrls.rdPerTurnAround::0-63        6196196     99.89%     99.89% # Reads before turning the bus around for writes
system.mem_ctrls.rdPerTurnAround::64-127         5440      0.09%     99.98% # Reads before turning the bus around for writes
system.mem_ctrls.rdPerTurnAround::128-191         1152      0.02%    100.00% # Reads before turning the bus around for writes
system.mem_ctrls.rdPerTurnAround::192-255           95      0.00%    100.00% # Reads before turning the bus around for writes
system.mem_ctrls.rdPerTurnAround::256-319           18      0.00%    100.00% # Reads before turning the bus around for writes
system.mem_ctrls.rdPerTurnAround::320-383            7      0.00%    100.00% # Reads before turning the bus around for writes
system.mem_ctrls.rdPerTurnAround::384-447            2      0.00%    100.00% # Reads before turning the bus around for writes
system.mem_ctrls.rdPerTurnAround::448-511            3      0.00%    100.00% # Reads before turning the bus around for writes
system.mem_ctrls.rdPerTurnAround::512-575            2      0.00%    100.00% # Reads before turning the bus around for writes
system.mem_ctrls.rdPerTurnAround::704-767            1      0.00%    100.00% # Reads before turning the bus around for writes
system.mem_ctrls.rdPerTurnAround::1728-1791            1      0.00%    100.00% # Reads before turning the bus around for writes
system.mem_ctrls.rdPerTurnAround::total       6202917                       # Reads before turning the bus around for writes
system.mem_ctrls.wrPerTurnAround::samples      6202917                       # Writes before turning the bus around for reads
system.mem_ctrls.wrPerTurnAround::mean      18.922953                       # Writes before turning the bus around for reads
system.mem_ctrls.wrPerTurnAround::gmean     16.783086                       # Writes before turning the bus around for reads
system.mem_ctrls.wrPerTurnAround::stdev    243.801641                       # Writes before turning the bus around for reads
system.mem_ctrls.wrPerTurnAround::0-8191      6202904    100.00%    100.00% # Writes before turning the bus around for reads
system.mem_ctrls.wrPerTurnAround::24576-32767            9      0.00%    100.00% # Writes before turning the bus around for reads
system.mem_ctrls.wrPerTurnAround::57344-65535            1      0.00%    100.00% # Writes before turning the bus around for reads
system.mem_ctrls.wrPerTurnAround::253952-262143            1      0.00%    100.00% # Writes before turning the bus around for reads
system.mem_ctrls.wrPerTurnAround::262144-270335            1      0.00%    100.00% # Writes before turning the bus around for reads
system.mem_ctrls.wrPerTurnAround::450560-458751            1      0.00%    100.00% # Writes before turning the bus around for reads
system.mem_ctrls.wrPerTurnAround::total       6202917                       # Writes before turning the bus around for reads
system.mem_ctrls.totQLat                 2286013556795                       # Total ticks spent queuing
system.mem_ctrls.totMemAccLat            4011846581795                       # Total ticks spent from burst creation until serviced by the DRAM
system.mem_ctrls.totBusLat               460222140000                       # Total ticks spent in databus transfers
system.mem_ctrls.avgQLat                     24835.98                       # Average queueing delay per DRAM burst
system.mem_ctrls.avgBusLat                    5000.00                       # Average bus latency per DRAM burst
system.mem_ctrls.avgMemAccLat                43585.98                       # Average memory access latency per DRAM burst
system.mem_ctrls.avgRdBW                         0.24                       # Average DRAM read bandwidth in MiByte/s
system.mem_ctrls.avgWrBW                         0.30                       # Average achieved write bandwidth in MiByte/s
system.mem_ctrls.avgRdBWSys                      0.27                       # Average system read bandwidth in MiByte/s
system.mem_ctrls.avgWrBWSys                      0.32                       # Average system write bandwidth in MiByte/s
system.mem_ctrls.peakBW                      12800.00                       # Theoretical peak bandwidth in MiByte/s
system.mem_ctrls.busUtil                         0.00                       # Data bus utilization in percentage
system.mem_ctrls.busUtilRead                     0.00                       # Data bus utilization in percentage for reads
system.mem_ctrls.busUtilWrite                    0.00                       # Data bus utilization in percentage for writes
system.mem_ctrls.avgRdQLen                       1.00                       # Average read queue length when enqueuing
system.mem_ctrls.avgWrQLen                      25.29                       # Average write queue length when enqueuing
system.mem_ctrls.readRowHits                 60835098                       # Number of row buffer hits during reads
system.mem_ctrls.writeRowHits                77696280                       # Number of row buffer hits during writes
system.mem_ctrls.readRowHitRate                 66.09                       # Row buffer hit rate for reads
system.mem_ctrls.writeRowHitRate                66.19                       # Row buffer hit rate for writes
system.mem_ctrls.avgGap                  108299793.24                       # Average gap between requests
system.mem_ctrls.pageHitRate                    66.15                       # Row buffer hit rate, read and write combined
system.mem_ctrls_0.actEnergy             242977184520                       # Energy for activate commands per rank (pJ)
system.mem_ctrls_0.preEnergy             129145409745                       # Energy for precharge commands per rank (pJ)
system.mem_ctrls_0.readEnergy            302461110000                       # Energy for read commands per rank (pJ)
system.mem_ctrls_0.writeEnergy           285512133420                       # Energy for write commands per rank (pJ)
system.mem_ctrls_0.refreshEnergy         709606182480.000122                       # Energy for refresh commands per rank (pJ)
system.mem_ctrls_0.actBackEnergy         1556737324980                       # Energy for active background per rank (pJ)
system.mem_ctrls_0.preBackEnergy          21826728480                       # Energy for precharge background per rank (pJ)
system.mem_ctrls_0.actPowerDownEnergy    2022932673300                       # Energy for active power-down per rank (pJ)
system.mem_ctrls_0.prePowerDownEnergy    261450873600                       # Energy for precharge power-down per rank (pJ)
system.mem_ctrls_0.selfRefreshEnergy     5961148526687460                       # Energy for self refresh per rank (pJ)
system.mem_ctrls_0.totalEnergy           5966681221621725                       # Total energy per rank (pJ)
system.mem_ctrls_0.averagePower            240.140952                       # Core power per rank (mW)
system.mem_ctrls_0.totalIdleTime         24843108512991552                       # Total Idle time Per DRAM Rank
system.mem_ctrls_0.memoryStateTime::IDLE  23433882436                       # Time in different power states
system.mem_ctrls_0.memoryStateTime::REF  300508486000                       # Time in different power states
system.mem_ctrls_0.memoryStateTime::SREF 24837991390981304                       # Time in different power states
system.mem_ctrls_0.memoryStateTime::PRE_PDN 680865940329                       # Time in different power states
system.mem_ctrls_0.memoryStateTime::ACT  3146891437007                       # Time in different power states
system.mem_ctrls_0.memoryStateTime::ACT_PDN 4436256509728                       # Time in different power states
system.mem_ctrls_1.actEnergy             263181399600                       # Energy for activate commands per rank (pJ)
system.mem_ctrls_1.preEnergy             139884212325                       # Energy for precharge commands per rank (pJ)
system.mem_ctrls_1.readEnergy            354736105920                       # Energy for read commands per rank (pJ)
system.mem_ctrls_1.writeEnergy           327198458340                       # Energy for write commands per rank (pJ)
system.mem_ctrls_1.refreshEnergy         718636473360.000122                       # Energy for refresh commands per rank (pJ)
system.mem_ctrls_1.actBackEnergy         1521394085100                       # Energy for active background per rank (pJ)
system.mem_ctrls_1.preBackEnergy          22221055680                       # Energy for precharge background per rank (pJ)
system.mem_ctrls_1.actPowerDownEnergy    2102275670670                       # Energy for active power-down per rank (pJ)
system.mem_ctrls_1.prePowerDownEnergy    272330302560                       # Energy for precharge power-down per rank (pJ)
system.mem_ctrls_1.selfRefreshEnergy     5961117449179080                       # Energy for self refresh per rank (pJ)
system.mem_ctrls_1.totalEnergy           5966839359080625                       # Total energy per rank (pJ)
system.mem_ctrls_1.averagePower            240.147317                       # Core power per rank (mW)
system.mem_ctrls_1.totalIdleTime         24843184971077632                       # Total Idle time Per DRAM Rank
system.mem_ctrls_1.memoryStateTime::IDLE  23567104281                       # Time in different power states
system.mem_ctrls_1.memoryStateTime::REF  304320510000                       # Time in different power states
system.mem_ctrls_1.memoryStateTime::SREF 24837865526133984                       # Time in different power states
system.mem_ctrls_1.memoryStateTime::PRE_PDN 709196500933                       # Time in different power states
system.mem_ctrls_1.memoryStateTime::ACT  3066487544473                       # Time in different power states
system.mem_ctrls_1.memoryStateTime::ACT_PDN 4610249453563                       # Time in different power states
system.pwrStateResidencyTicks::UNDEFINED 24846579347237000                       # Cumulative time (in ticks) in various power states
system.bridge.pwrStateResidencyTicks::UNDEFINED 24846579347237000                       # Cumulative time (in ticks) in various power states
system.cf0.dma_read_full_pages                   4813                       # Number of full page size DMA reads (not PRD).
system.cf0.dma_read_bytes                    19714048                       # Number of bytes transfered via DMA reads (not PRD).
system.cf0.dma_read_txs                          4813                       # Number of DMA read transactions (not PRD).
system.cf0.dma_write_full_pages                  7272                       # Number of full page size DMA writes.
system.cf0.dma_write_bytes                   29788672                       # Number of bytes transfered via DMA writes.
system.cf0.dma_write_txs                         7275                       # Number of DMA write transactions.
system.cpu.branchPred.lookups              1732792797                       # Number of BP lookups
system.cpu.branchPred.condPredicted        1365363511                       # Number of conditional branches predicted
system.cpu.branchPred.condIncorrect          90232479                       # Number of conditional branches incorrect
system.cpu.branchPred.BTBLookups           1078440153                       # Number of BTB lookups
system.cpu.branchPred.BTBHits               800331675                       # Number of BTB hits
system.cpu.branchPred.BTBCorrect                    0                       # Number of correct BTB predictions (this stat may not work properly.
system.cpu.branchPred.BTBHitPct             74.211969                       # BTB Hit Percentage
system.cpu.branchPred.usedRAS               108314153                       # Number of times the RAS was used to get a target.
system.cpu.branchPred.RASInCorrect             539336                       # Number of incorrect RAS predictions.
system.cpu.branchPred.indirectLookups        28295979                       # Number of indirect predictor lookups.
system.cpu.branchPred.indirectHits           21003528                       # Number of indirect target hits.
system.cpu.branchPred.indirectMisses          7292451                       # Number of indirect misses.
system.cpu.branchPredindirectMispredicted      2052859                       # Number of mispredicted indirect branches.
system.cpu_voltage_domain.voltage                   1                       # Voltage in Volts
system.cpu_clk_domain.clock                       500                       # Clock period in ticks
system.cpu.dstage2_mmu.stage2_tlb.walker.pwrStateResidencyTicks::UNDEFINED 24846579347237000                       # Cumulative time (in ticks) in various power states
system.cpu.dstage2_mmu.stage2_tlb.walker.walks            0                       # Table walker walks requested
system.cpu.dstage2_mmu.stage2_tlb.walker.walkRequestOrigin_Requested::Data            0                       # Table walker requests started/completed, data/inst
system.cpu.dstage2_mmu.stage2_tlb.walker.walkRequestOrigin_Requested::Inst            0                       # Table walker requests started/completed, data/inst
system.cpu.dstage2_mmu.stage2_tlb.walker.walkRequestOrigin_Requested::total            0                       # Table walker requests started/completed, data/inst
system.cpu.dstage2_mmu.stage2_tlb.walker.walkRequestOrigin_Completed::Data            0                       # Table walker requests started/completed, data/inst
system.cpu.dstage2_mmu.stage2_tlb.walker.walkRequestOrigin_Completed::Inst            0                       # Table walker requests started/completed, data/inst
system.cpu.dstage2_mmu.stage2_tlb.walker.walkRequestOrigin_Completed::total            0                       # Table walker requests started/completed, data/inst
system.cpu.dstage2_mmu.stage2_tlb.walker.walkRequestOrigin::total            0                       # Table walker requests started/completed, data/inst
system.cpu.dstage2_mmu.stage2_tlb.inst_hits            0                       # ITB inst hits
system.cpu.dstage2_mmu.stage2_tlb.inst_misses            0                       # ITB inst misses
system.cpu.dstage2_mmu.stage2_tlb.read_hits            0                       # DTB read hits
system.cpu.dstage2_mmu.stage2_tlb.read_misses            0                       # DTB read misses
system.cpu.dstage2_mmu.stage2_tlb.write_hits            0                       # DTB write hits
system.cpu.dstage2_mmu.stage2_tlb.write_misses            0                       # DTB write misses
system.cpu.dstage2_mmu.stage2_tlb.flush_tlb            0                       # Number of times complete TLB was flushed
system.cpu.dstage2_mmu.stage2_tlb.flush_tlb_mva            0                       # Number of times TLB was flushed by MVA
system.cpu.dstage2_mmu.stage2_tlb.flush_tlb_mva_asid            0                       # Number of times TLB was flushed by MVA & ASID
system.cpu.dstage2_mmu.stage2_tlb.flush_tlb_asid            0                       # Number of times TLB was flushed by ASID
system.cpu.dstage2_mmu.stage2_tlb.flush_entries            0                       # Number of entries that have been flushed from TLB
system.cpu.dstage2_mmu.stage2_tlb.align_faults            0                       # Number of TLB faults due to alignment restrictions
system.cpu.dstage2_mmu.stage2_tlb.prefetch_faults            0                       # Number of TLB faults due to prefetch
system.cpu.dstage2_mmu.stage2_tlb.domain_faults            0                       # Number of TLB faults due to domain restrictions
system.cpu.dstage2_mmu.stage2_tlb.perms_faults            0                       # Number of TLB faults due to permissions restrictions
system.cpu.dstage2_mmu.stage2_tlb.read_accesses            0                       # DTB read accesses
system.cpu.dstage2_mmu.stage2_tlb.write_accesses            0                       # DTB write accesses
system.cpu.dstage2_mmu.stage2_tlb.inst_accesses            0                       # ITB inst accesses
system.cpu.dstage2_mmu.stage2_tlb.hits              0                       # DTB hits
system.cpu.dstage2_mmu.stage2_tlb.misses            0                       # DTB misses
system.cpu.dstage2_mmu.stage2_tlb.accesses            0                       # DTB accesses
system.cpu.dtb.walker.pwrStateResidencyTicks::UNDEFINED 24846579347237000                       # Cumulative time (in ticks) in various power states
system.cpu.dtb.walker.walks                  11133594                       # Table walker walks requested
system.cpu.dtb.walker.walksLong              11133594                       # Table walker walks initiated with long descriptors
system.cpu.dtb.walker.walksLongTerminationLevel::Level2        48808                       # Level at which table walker walks with long descriptors terminate
system.cpu.dtb.walker.walksLongTerminationLevel::Level3      1377317                       # Level at which table walker walks with long descriptors terminate
system.cpu.dtb.walker.walksSquashedBefore      1972304                       # Table walks squashed before starting
system.cpu.dtb.walker.walkWaitTime::samples      9161290                       # Table walker wait (enqueue to first request) latency
system.cpu.dtb.walker.walkWaitTime::mean  1293.882466                       # Table walker wait (enqueue to first request) latency
system.cpu.dtb.walker.walkWaitTime::stdev 13017.156994                       # Table walker wait (enqueue to first request) latency
system.cpu.dtb.walker.walkWaitTime::0-65535      9092062     99.24%     99.24% # Table walker wait (enqueue to first request) latency
system.cpu.dtb.walker.walkWaitTime::65536-131071        45805      0.50%     99.74% # Table walker wait (enqueue to first request) latency
system.cpu.dtb.walker.walkWaitTime::131072-196607        14789      0.16%     99.91% # Table walker wait (enqueue to first request) latency
system.cpu.dtb.walker.walkWaitTime::196608-262143         4777      0.05%     99.96% # Table walker wait (enqueue to first request) latency
system.cpu.dtb.walker.walkWaitTime::262144-327679         2140      0.02%     99.98% # Table walker wait (enqueue to first request) latency
system.cpu.dtb.walker.walkWaitTime::327680-393215          999      0.01%     99.99% # Table walker wait (enqueue to first request) latency
system.cpu.dtb.walker.walkWaitTime::393216-458751          431      0.00%    100.00% # Table walker wait (enqueue to first request) latency
system.cpu.dtb.walker.walkWaitTime::458752-524287          184      0.00%    100.00% # Table walker wait (enqueue to first request) latency
system.cpu.dtb.walker.walkWaitTime::524288-589823           60      0.00%    100.00% # Table walker wait (enqueue to first request) latency
system.cpu.dtb.walker.walkWaitTime::589824-655359           24      0.00%    100.00% # Table walker wait (enqueue to first request) latency
system.cpu.dtb.walker.walkWaitTime::655360-720895           12      0.00%    100.00% # Table walker wait (enqueue to first request) latency
system.cpu.dtb.walker.walkWaitTime::720896-786431            5      0.00%    100.00% # Table walker wait (enqueue to first request) latency
system.cpu.dtb.walker.walkWaitTime::786432-851967            2      0.00%    100.00% # Table walker wait (enqueue to first request) latency
system.cpu.dtb.walker.walkWaitTime::total      9161290                       # Table walker wait (enqueue to first request) latency
system.cpu.dtb.walker.walkCompletionTime::samples      3107983                       # Table walker service (enqueue to completion) latency
system.cpu.dtb.walker.walkCompletionTime::mean 48201.136074                       # Table walker service (enqueue to completion) latency
system.cpu.dtb.walker.walkCompletionTime::gmean 23947.884870                       # Table walker service (enqueue to completion) latency
system.cpu.dtb.walker.walkCompletionTime::stdev 59614.392907                       # Table walker service (enqueue to completion) latency
system.cpu.dtb.walker.walkCompletionTime::0-131071      2865915     92.21%     92.21% # Table walker service (enqueue to completion) latency
system.cpu.dtb.walker.walkCompletionTime::131072-262143       200653      6.46%     98.67% # Table walker service (enqueue to completion) latency
system.cpu.dtb.walker.walkCompletionTime::262144-393215        34579      1.11%     99.78% # Table walker service (enqueue to completion) latency
system.cpu.dtb.walker.walkCompletionTime::393216-524287         5389      0.17%     99.95% # Table walker service (enqueue to completion) latency
system.cpu.dtb.walker.walkCompletionTime::524288-655359         1065      0.03%     99.99% # Table walker service (enqueue to completion) latency
system.cpu.dtb.walker.walkCompletionTime::655360-786431          336      0.01%    100.00% # Table walker service (enqueue to completion) latency
system.cpu.dtb.walker.walkCompletionTime::786432-917503           38      0.00%    100.00% # Table walker service (enqueue to completion) latency
system.cpu.dtb.walker.walkCompletionTime::917504-1.04858e+06            2      0.00%    100.00% # Table walker service (enqueue to completion) latency
system.cpu.dtb.walker.walkCompletionTime::1.04858e+06-1.17965e+06            6      0.00%    100.00% # Table walker service (enqueue to completion) latency
system.cpu.dtb.walker.walkCompletionTime::total      3107983                       # Table walker service (enqueue to completion) latency
system.cpu.dtb.walker.walksPending::samples 12816446858444                       # Table walker pending requests distribution
system.cpu.dtb.walker.walksPending::mean     0.869247                       # Table walker pending requests distribution
system.cpu.dtb.walker.walksPending::stdev     0.383654                       # Table walker pending requests distribution
system.cpu.dtb.walker.walksPending::0-3  12807663562944     99.93%     99.93% # Table walker pending requests distribution
system.cpu.dtb.walker.walksPending::4-7    5963271500      0.05%     99.98% # Table walker pending requests distribution
system.cpu.dtb.walker.walksPending::8-11   2200094500      0.02%    100.00% # Table walker pending requests distribution
system.cpu.dtb.walker.walksPending::12-15    555285500      0.00%    100.00% # Table walker pending requests distribution
system.cpu.dtb.walker.walksPending::16-19     64617000      0.00%    100.00% # Table walker pending requests distribution
system.cpu.dtb.walker.walksPending::20-23         4000      0.00%    100.00% # Table walker pending requests distribution
system.cpu.dtb.walker.walksPending::24-27         2500      0.00%    100.00% # Table walker pending requests distribution
system.cpu.dtb.walker.walksPending::28-31         4000      0.00%    100.00% # Table walker pending requests distribution
system.cpu.dtb.walker.walksPending::32-35        16500      0.00%    100.00% # Table walker pending requests distribution
system.cpu.dtb.walker.walksPending::total 12816446858444                       # Table walker pending requests distribution
system.cpu.dtb.walker.walkPageSizes::4K       1377317     96.58%     96.58% # Table walker page sizes translated
system.cpu.dtb.walker.walkPageSizes::2M         48808      3.42%    100.00% # Table walker page sizes translated
system.cpu.dtb.walker.walkPageSizes::total      1426125                       # Table walker page sizes translated
system.cpu.dtb.walker.walkRequestOrigin_Requested::Data     11133594                       # Table walker requests started/completed, data/inst
system.cpu.dtb.walker.walkRequestOrigin_Requested::Inst            0                       # Table walker requests started/completed, data/inst
system.cpu.dtb.walker.walkRequestOrigin_Requested::total     11133594                       # Table walker requests started/completed, data/inst
system.cpu.dtb.walker.walkRequestOrigin_Completed::Data      1426125                       # Table walker requests started/completed, data/inst
system.cpu.dtb.walker.walkRequestOrigin_Completed::Inst            0                       # Table walker requests started/completed, data/inst
system.cpu.dtb.walker.walkRequestOrigin_Completed::total      1426125                       # Table walker requests started/completed, data/inst
system.cpu.dtb.walker.walkRequestOrigin::total     12559719                       # Table walker requests started/completed, data/inst
system.cpu.dtb.inst_hits                            0                       # ITB inst hits
system.cpu.dtb.inst_misses                          0                       # ITB inst misses
system.cpu.dtb.read_hits                   1831320059                       # DTB read hits
system.cpu.dtb.read_misses                    9721252                       # DTB read misses
system.cpu.dtb.write_hits                   713878584                       # DTB write hits
system.cpu.dtb.write_misses                   1412342                       # DTB write misses
system.cpu.dtb.flush_tlb                           13                       # Number of times complete TLB was flushed
system.cpu.dtb.flush_tlb_mva                        6                       # Number of times TLB was flushed by MVA
system.cpu.dtb.flush_tlb_mva_asid              116030                       # Number of times TLB was flushed by MVA & ASID
system.cpu.dtb.flush_tlb_asid                     708                       # Number of times TLB was flushed by ASID
system.cpu.dtb.flush_entries                    92142                       # Number of entries that have been flushed from TLB
system.cpu.dtb.align_faults                       499                       # Number of TLB faults due to alignment restrictions
system.cpu.dtb.prefetch_faults                  30560                       # Number of TLB faults due to prefetch
system.cpu.dtb.domain_faults                        0                       # Number of TLB faults due to domain restrictions
system.cpu.dtb.perms_faults                    195200                       # Number of TLB faults due to permissions restrictions
system.cpu.dtb.read_accesses               1841041311                       # DTB read accesses
system.cpu.dtb.write_accesses               715290926                       # DTB write accesses
system.cpu.dtb.inst_accesses                        0                       # ITB inst accesses
system.cpu.dtb.hits                        2545198643                       # DTB hits
system.cpu.dtb.misses                        11133594                       # DTB misses
system.cpu.dtb.accesses                    2556332237                       # DTB accesses
system.cpu.istage2_mmu.stage2_tlb.walker.pwrStateResidencyTicks::UNDEFINED 24846579347237000                       # Cumulative time (in ticks) in various power states
system.cpu.istage2_mmu.stage2_tlb.walker.walks            0                       # Table walker walks requested
system.cpu.istage2_mmu.stage2_tlb.walker.walkRequestOrigin_Requested::Data            0                       # Table walker requests started/completed, data/inst
system.cpu.istage2_mmu.stage2_tlb.walker.walkRequestOrigin_Requested::Inst            0                       # Table walker requests started/completed, data/inst
system.cpu.istage2_mmu.stage2_tlb.walker.walkRequestOrigin_Requested::total            0                       # Table walker requests started/completed, data/inst
system.cpu.istage2_mmu.stage2_tlb.walker.walkRequestOrigin_Completed::Data            0                       # Table walker requests started/completed, data/inst
system.cpu.istage2_mmu.stage2_tlb.walker.walkRequestOrigin_Completed::Inst            0                       # Table walker requests started/completed, data/inst
system.cpu.istage2_mmu.stage2_tlb.walker.walkRequestOrigin_Completed::total            0                       # Table walker requests started/completed, data/inst
system.cpu.istage2_mmu.stage2_tlb.walker.walkRequestOrigin::total            0                       # Table walker requests started/completed, data/inst
system.cpu.istage2_mmu.stage2_tlb.inst_hits            0                       # ITB inst hits
system.cpu.istage2_mmu.stage2_tlb.inst_misses            0                       # ITB inst misses
system.cpu.istage2_mmu.stage2_tlb.read_hits            0                       # DTB read hits
system.cpu.istage2_mmu.stage2_tlb.read_misses            0                       # DTB read misses
system.cpu.istage2_mmu.stage2_tlb.write_hits            0                       # DTB write hits
system.cpu.istage2_mmu.stage2_tlb.write_misses            0                       # DTB write misses
system.cpu.istage2_mmu.stage2_tlb.flush_tlb            0                       # Number of times complete TLB was flushed
system.cpu.istage2_mmu.stage2_tlb.flush_tlb_mva            0                       # Number of times TLB was flushed by MVA
system.cpu.istage2_mmu.stage2_tlb.flush_tlb_mva_asid            0                       # Number of times TLB was flushed by MVA & ASID
system.cpu.istage2_mmu.stage2_tlb.flush_tlb_asid            0                       # Number of times TLB was flushed by ASID
system.cpu.istage2_mmu.stage2_tlb.flush_entries            0                       # Number of entries that have been flushed from TLB
system.cpu.istage2_mmu.stage2_tlb.align_faults            0                       # Number of TLB faults due to alignment restrictions
system.cpu.istage2_mmu.stage2_tlb.prefetch_faults            0                       # Number of TLB faults due to prefetch
system.cpu.istage2_mmu.stage2_tlb.domain_faults            0                       # Number of TLB faults due to domain restrictions
system.cpu.istage2_mmu.stage2_tlb.perms_faults            0                       # Number of TLB faults due to permissions restrictions
system.cpu.istage2_mmu.stage2_tlb.read_accesses            0                       # DTB read accesses
system.cpu.istage2_mmu.stage2_tlb.write_accesses            0                       # DTB write accesses
system.cpu.istage2_mmu.stage2_tlb.inst_accesses            0                       # ITB inst accesses
system.cpu.istage2_mmu.stage2_tlb.hits              0                       # DTB hits
system.cpu.istage2_mmu.stage2_tlb.misses            0                       # DTB misses
system.cpu.istage2_mmu.stage2_tlb.accesses            0                       # DTB accesses
system.cpu.itb.walker.pwrStateResidencyTicks::UNDEFINED 24846579347237000                       # Cumulative time (in ticks) in various power states
system.cpu.itb.walker.walks                    444036                       # Table walker walks requested
system.cpu.itb.walker.walksLong                444036                       # Table walker walks initiated with long descriptors
system.cpu.itb.walker.walksLongTerminationLevel::Level2         5985                       # Level at which table walker walks with long descriptors terminate
system.cpu.itb.walker.walksLongTerminationLevel::Level3       288965                       # Level at which table walker walks with long descriptors terminate
system.cpu.itb.walker.walksSquashedBefore        31012                       # Table walks squashed before starting
system.cpu.itb.walker.walkWaitTime::samples       413024                       # Table walker wait (enqueue to first request) latency
system.cpu.itb.walker.walkWaitTime::mean  2295.080915                       # Table walker wait (enqueue to first request) latency
system.cpu.itb.walker.walkWaitTime::stdev 19969.353899                       # Table walker wait (enqueue to first request) latency
system.cpu.itb.walker.walkWaitTime::0-65535       407805     98.74%     98.74% # Table walker wait (enqueue to first request) latency
system.cpu.itb.walker.walkWaitTime::65536-131071         2574      0.62%     99.36% # Table walker wait (enqueue to first request) latency
system.cpu.itb.walker.walkWaitTime::131072-196607         1211      0.29%     99.65% # Table walker wait (enqueue to first request) latency
system.cpu.itb.walker.walkWaitTime::196608-262143          877      0.21%     99.87% # Table walker wait (enqueue to first request) latency
system.cpu.itb.walker.walkWaitTime::262144-327679          352      0.09%     99.95% # Table walker wait (enqueue to first request) latency
system.cpu.itb.walker.walkWaitTime::327680-393215          135      0.03%     99.98% # Table walker wait (enqueue to first request) latency
system.cpu.itb.walker.walkWaitTime::393216-458751           34      0.01%     99.99% # Table walker wait (enqueue to first request) latency
system.cpu.itb.walker.walkWaitTime::458752-524287           21      0.01%    100.00% # Table walker wait (enqueue to first request) latency
system.cpu.itb.walker.walkWaitTime::524288-589823            9      0.00%    100.00% # Table walker wait (enqueue to first request) latency
system.cpu.itb.walker.walkWaitTime::589824-655359            6      0.00%    100.00% # Table walker wait (enqueue to first request) latency
system.cpu.itb.walker.walkWaitTime::total       413024                       # Table walker wait (enqueue to first request) latency
system.cpu.itb.walker.walkCompletionTime::samples       325962                       # Table walker service (enqueue to completion) latency
system.cpu.itb.walker.walkCompletionTime::mean 43495.878354                       # Table walker service (enqueue to completion) latency
system.cpu.itb.walker.walkCompletionTime::gmean 20667.115090                       # Table walker service (enqueue to completion) latency
system.cpu.itb.walker.walkCompletionTime::stdev 58570.055932                       # Table walker service (enqueue to completion) latency
system.cpu.itb.walker.walkCompletionTime::0-65535       230424     70.69%     70.69% # Table walker service (enqueue to completion) latency
system.cpu.itb.walker.walkCompletionTime::65536-131071        74453     22.84%     93.53% # Table walker service (enqueue to completion) latency
system.cpu.itb.walker.walkCompletionTime::131072-196607        11484      3.52%     97.05% # Table walker service (enqueue to completion) latency
system.cpu.itb.walker.walkCompletionTime::196608-262143         5416      1.66%     98.72% # Table walker service (enqueue to completion) latency
system.cpu.itb.walker.walkCompletionTime::262144-327679         2572      0.79%     99.51% # Table walker service (enqueue to completion) latency
system.cpu.itb.walker.walkCompletionTime::327680-393215         1053      0.32%     99.83% # Table walker service (enqueue to completion) latency
system.cpu.itb.walker.walkCompletionTime::393216-458751          292      0.09%     99.92% # Table walker service (enqueue to completion) latency
system.cpu.itb.walker.walkCompletionTime::458752-524287          170      0.05%     99.97% # Table walker service (enqueue to completion) latency
system.cpu.itb.walker.walkCompletionTime::524288-589823           54      0.02%     99.99% # Table walker service (enqueue to completion) latency
system.cpu.itb.walker.walkCompletionTime::589824-655359           35      0.01%    100.00% # Table walker service (enqueue to completion) latency
system.cpu.itb.walker.walkCompletionTime::655360-720895            5      0.00%    100.00% # Table walker service (enqueue to completion) latency
system.cpu.itb.walker.walkCompletionTime::720896-786431            2      0.00%    100.00% # Table walker service (enqueue to completion) latency
system.cpu.itb.walker.walkCompletionTime::786432-851967            2      0.00%    100.00% # Table walker service (enqueue to completion) latency
system.cpu.itb.walker.walkCompletionTime::total       325962                       # Table walker service (enqueue to completion) latency
system.cpu.itb.walker.walksPending::samples 2701799401864                       # Table walker pending requests distribution
system.cpu.itb.walker.walksPending::mean     0.951386                       # Table walker pending requests distribution
system.cpu.itb.walker.walksPending::stdev     0.215739                       # Table walker pending requests distribution
system.cpu.itb.walker.walksPending::0    131735407080      4.88%      4.88% # Table walker pending requests distribution
system.cpu.itb.walker.walksPending::1    2569677456784     95.11%     99.99% # Table walker pending requests distribution
system.cpu.itb.walker.walksPending::2       382213500      0.01%    100.00% # Table walker pending requests distribution
system.cpu.itb.walker.walksPending::3         4054500      0.00%    100.00% # Table walker pending requests distribution
system.cpu.itb.walker.walksPending::4          270000      0.00%    100.00% # Table walker pending requests distribution
system.cpu.itb.walker.walksPending::total 2701799401864                       # Table walker pending requests distribution
system.cpu.itb.walker.walkPageSizes::4K        288965     97.97%     97.97% # Table walker page sizes translated
system.cpu.itb.walker.walkPageSizes::2M          5985      2.03%    100.00% # Table walker page sizes translated
system.cpu.itb.walker.walkPageSizes::total       294950                       # Table walker page sizes translated
system.cpu.itb.walker.walkRequestOrigin_Requested::Data            0                       # Table walker requests started/completed, data/inst
system.cpu.itb.walker.walkRequestOrigin_Requested::Inst       444036                       # Table walker requests started/completed, data/inst
system.cpu.itb.walker.walkRequestOrigin_Requested::total       444036                       # Table walker requests started/completed, data/inst
system.cpu.itb.walker.walkRequestOrigin_Completed::Data            0                       # Table walker requests started/completed, data/inst
system.cpu.itb.walker.walkRequestOrigin_Completed::Inst       294950                       # Table walker requests started/completed, data/inst
system.cpu.itb.walker.walkRequestOrigin_Completed::total       294950                       # Table walker requests started/completed, data/inst
system.cpu.itb.walker.walkRequestOrigin::total       738986                       # Table walker requests started/completed, data/inst
system.cpu.itb.inst_hits                   3335616940                       # ITB inst hits
system.cpu.itb.inst_misses                     444036                       # ITB inst misses
system.cpu.itb.read_hits                            0                       # DTB read hits
system.cpu.itb.read_misses                          0                       # DTB read misses
system.cpu.itb.write_hits                           0                       # DTB write hits
system.cpu.itb.write_misses                         0                       # DTB write misses
system.cpu.itb.flush_tlb                           13                       # Number of times complete TLB was flushed
system.cpu.itb.flush_tlb_mva                        6                       # Number of times TLB was flushed by MVA
system.cpu.itb.flush_tlb_mva_asid              116030                       # Number of times TLB was flushed by MVA & ASID
system.cpu.itb.flush_tlb_asid                     708                       # Number of times TLB was flushed by ASID
system.cpu.itb.flush_entries                    41031                       # Number of entries that have been flushed from TLB
system.cpu.itb.align_faults                         0                       # Number of TLB faults due to alignment restrictions
system.cpu.itb.prefetch_faults                      0                       # Number of TLB faults due to prefetch
system.cpu.itb.domain_faults                        0                       # Number of TLB faults due to domain restrictions
system.cpu.itb.perms_faults                    780689                       # Number of TLB faults due to permissions restrictions
system.cpu.itb.read_accesses                        0                       # DTB read accesses
system.cpu.itb.write_accesses                       0                       # DTB write accesses
system.cpu.itb.inst_accesses               3336060976                       # ITB inst accesses
system.cpu.itb.hits                        3335616940                       # DTB hits
system.cpu.itb.misses                          444036                       # DTB misses
system.cpu.itb.accesses                    3336060976                       # DTB accesses
system.cpu.numPwrStateTransitions              105202                       # Number of power state transitions
system.cpu.pwrStateClkGateDist::samples         52601                       # Distribution of time spent in the clock gated state
system.cpu.pwrStateClkGateDist::mean     472190512500.785767                       # Distribution of time spent in the clock gated state
system.cpu.pwrStateClkGateDist::stdev    463624725372.770630                       # Distribution of time spent in the clock gated state
system.cpu.pwrStateClkGateDist::underflows        22243     42.29%     42.29% # Distribution of time spent in the clock gated state
system.cpu.pwrStateClkGateDist::1000-5e+10          633      1.20%     43.49% # Distribution of time spent in the clock gated state
system.cpu.pwrStateClkGateDist::5e+10-1e+11          526      1.00%     44.49% # Distribution of time spent in the clock gated state
system.cpu.pwrStateClkGateDist::1e+11-1.5e+11          558      1.06%     45.55% # Distribution of time spent in the clock gated state
system.cpu.pwrStateClkGateDist::1.5e+11-2e+11          547      1.04%     46.59% # Distribution of time spent in the clock gated state
system.cpu.pwrStateClkGateDist::2e+11-2.5e+11          560      1.06%     47.65% # Distribution of time spent in the clock gated state
system.cpu.pwrStateClkGateDist::2.5e+11-3e+11          542      1.03%     48.69% # Distribution of time spent in the clock gated state
system.cpu.pwrStateClkGateDist::3e+11-3.5e+11          549      1.04%     49.73% # Distribution of time spent in the clock gated state
system.cpu.pwrStateClkGateDist::3.5e+11-4e+11          553      1.05%     50.78% # Distribution of time spent in the clock gated state
system.cpu.pwrStateClkGateDist::4e+11-4.5e+11          548      1.04%     51.82% # Distribution of time spent in the clock gated state
system.cpu.pwrStateClkGateDist::4.5e+11-5e+11          524      1.00%     52.82% # Distribution of time spent in the clock gated state
system.cpu.pwrStateClkGateDist::5e+11-5.5e+11          520      0.99%     53.81% # Distribution of time spent in the clock gated state
system.cpu.pwrStateClkGateDist::5.5e+11-6e+11          556      1.06%     54.86% # Distribution of time spent in the clock gated state
system.cpu.pwrStateClkGateDist::6e+11-6.5e+11          541      1.03%     55.89% # Distribution of time spent in the clock gated state
system.cpu.pwrStateClkGateDist::6.5e+11-7e+11          535      1.02%     56.91% # Distribution of time spent in the clock gated state
system.cpu.pwrStateClkGateDist::7e+11-7.5e+11          537      1.02%     57.93% # Distribution of time spent in the clock gated state
system.cpu.pwrStateClkGateDist::7.5e+11-8e+11          548      1.04%     58.97% # Distribution of time spent in the clock gated state
system.cpu.pwrStateClkGateDist::8e+11-8.5e+11          527      1.00%     59.97% # Distribution of time spent in the clock gated state
system.cpu.pwrStateClkGateDist::8.5e+11-9e+11          529      1.01%     60.98% # Distribution of time spent in the clock gated state
system.cpu.pwrStateClkGateDist::9e+11-9.5e+11          526      1.00%     61.98% # Distribution of time spent in the clock gated state
system.cpu.pwrStateClkGateDist::9.5e+11-1e+12        19999     38.02%    100.00% # Distribution of time spent in the clock gated state
system.cpu.pwrStateClkGateDist::min_value          501                       # Distribution of time spent in the clock gated state
system.cpu.pwrStateClkGateDist::max_value 999935655360                       # Distribution of time spent in the clock gated state
system.cpu.pwrStateClkGateDist::total           52601                       # Distribution of time spent in the clock gated state
system.cpu.pwrStateResidencyTicks::ON    8886199182101                       # Cumulative time (in ticks) in various power states
system.cpu.pwrStateResidencyTicks::CLK_GATED 24837693148053832                       # Cumulative time (in ticks) in various power states
system.cpu.numCycles                      17772416154                       # number of cpu cycles simulated
system.cpu.numWorkItemsStarted                      0                       # number of work items this cpu started
system.cpu.numWorkItemsCompleted                    0                       # number of work items this cpu completed
system.cpu.fetch.icacheStallCycles         2025621438                       # Number of cycles fetch is stalled on an Icache miss
system.cpu.fetch.Insts                    10044271001                       # Number of instructions fetch has processed
system.cpu.fetch.Branches                  1732792797                       # Number of branches that fetch encountered
system.cpu.fetch.predictedBranches          929649356                       # Number of branches that fetch has predicted taken
system.cpu.fetch.Cycles                    9459507149                       # Number of cycles fetch has run and was not squashing or blocked
system.cpu.fetch.SquashCycles               184907304                       # Number of cycles fetch has spent squashing
system.cpu.fetch.TlbCycles                   10758161                       # Number of cycles fetch has spent waiting for tlb
system.cpu.fetch.MiscStallCycles             10752207                       # Number of cycles fetch has spent waiting on interrupts, or bad addresses, or out of MSHRs
system.cpu.fetch.PendingTrapStallCycles      18113097                       # Number of stall cycles due to pending traps
system.cpu.fetch.PendingQuiesceStallCycles      5774148                       # Number of stall cycles due to pending quiesce instructions
system.cpu.fetch.IcacheWaitRetryStallCycles     21743590                       # Number of stall cycles due to full MSHR
system.cpu.fetch.CacheLines                3334766230                       # Number of cache lines fetched
system.cpu.fetch.IcacheSquashes              18499885                       # Number of outstanding Icache misses that were squashed
system.cpu.fetch.ItlbSquashes                  107041                       # Number of outstanding ITLB misses that were squashed
system.cpu.fetch.rateDist::samples        11644723442                       # Number of instructions fetched each cycle (Total)
system.cpu.fetch.rateDist::mean              0.923089                       # Number of instructions fetched each cycle (Total)
system.cpu.fetch.rateDist::stdev             1.193039                       # Number of instructions fetched each cycle (Total)
system.cpu.fetch.rateDist::underflows               0      0.00%      0.00% # Number of instructions fetched each cycle (Total)
system.cpu.fetch.rateDist::0               6385345043     54.83%     54.83% # Number of instructions fetched each cycle (Total)
system.cpu.fetch.rateDist::1               2153759330     18.50%     73.33% # Number of instructions fetched each cycle (Total)
system.cpu.fetch.rateDist::2                721505257      6.20%     79.53% # Number of instructions fetched each cycle (Total)
system.cpu.fetch.rateDist::3               2384113812     20.47%    100.00% # Number of instructions fetched each cycle (Total)
system.cpu.fetch.rateDist::overflows                0      0.00%    100.00% # Number of instructions fetched each cycle (Total)
system.cpu.fetch.rateDist::min_value                0                       # Number of instructions fetched each cycle (Total)
system.cpu.fetch.rateDist::max_value                3                       # Number of instructions fetched each cycle (Total)
system.cpu.fetch.rateDist::total          11644723442                       # Number of instructions fetched each cycle (Total)
system.cpu.fetch.branchRate                  0.097499                       # Number of branch fetches per cycle
system.cpu.fetch.rate                        0.565161                       # Number of inst fetches per cycle
system.cpu.decode.IdleCycles               2284462376                       # Number of cycles decode is idle
system.cpu.decode.BlockedCycles            5265295312                       # Number of cycles decode is blocked
system.cpu.decode.RunCycles                3398597089                       # Number of cycles decode is running
system.cpu.decode.UnblockCycles             619235661                       # Number of cycles decode is unblocking
system.cpu.decode.SquashCycles               77133004                       # Number of cycles decode is squashing
system.cpu.decode.BranchResolved            716382675                       # Number of times decode resolved a branch
system.cpu.decode.BranchMispred              15548478                       # Number of times decode detected a branch misprediction
system.cpu.decode.DecodedInsts             9571387846                       # Number of instructions handled by decode
system.cpu.decode.SquashedInsts             275173970                       # Number of squashed instructions handled by decode
system.cpu.rename.SquashCycles               77133004                       # Number of cycles rename is squashing
system.cpu.rename.IdleCycles               2803498693                       # Number of cycles rename is idle
system.cpu.rename.BlockCycles              3147868816                       # Number of cycles rename is blocking
system.cpu.rename.serializeStallCycles      828208592                       # count of cycles rename stalled for serializing inst
system.cpu.rename.RunCycles                3398567046                       # Number of cycles rename is running
[...]
system.iocache.blocked_cycles::no_mshrs       1522697                       # number of cycles access was blocked
system.iocache.blocked_cycles::no_targets            0                       # number of cycles access was blocked
system.iocache.blocked::no_mshrs               139776                       # number of cycles access was blocked
system.iocache.blocked::no_targets                  0                       # number of cycles access was blocked
system.iocache.avg_blocked_cycles::no_mshrs    10.893837                       # average number of cycles each access was blocked
system.iocache.avg_blocked_cycles::no_targets          nan                       # average number of cycles each access was blocked
system.iocache.writebacks::writebacks          464936                       # number of writebacks
system.iocache.writebacks::total               464936                       # number of writebacks
system.iocache.ReadReq_mshr_misses::pci_ide       315080                       # number of ReadReq MSHR misses
system.iocache.ReadReq_mshr_misses::total       315080                       # number of ReadReq MSHR misses
system.iocache.WriteLineReq_mshr_misses::pci_ide       465439                       # number of WriteLineReq MSHR misses
system.iocache.WriteLineReq_mshr_misses::total       465439                       # number of WriteLineReq MSHR misses
system.iocache.demand_mshr_misses::pci_ide       780519                       # number of demand (read+write) MSHR misses
system.iocache.demand_mshr_misses::total       780519                       # number of demand (read+write) MSHR misses
system.iocache.overall_mshr_misses::pci_ide       780519                       # number of overall MSHR misses
system.iocache.overall_mshr_misses::total       780519                       # number of overall MSHR misses
system.iocache.ReadReq_mshr_miss_latency::pci_ide  51792642245                       # number of ReadReq MSHR miss cycles
system.iocache.ReadReq_mshr_miss_latency::total  51792642245                       # number of ReadReq MSHR miss cycles
system.iocache.WriteLineReq_mshr_miss_latency::pci_ide  31585660919                       # number of WriteLineReq MSHR miss cycles
system.iocache.WriteLineReq_mshr_miss_latency::total  31585660919                       # number of WriteLineReq MSHR miss cycles
system.iocache.demand_mshr_miss_latency::pci_ide  83378303164                       # number of demand (read+write) MSHR miss cycles
system.iocache.demand_mshr_miss_latency::total  83378303164                       # number of demand (read+write) MSHR miss cycles
system.iocache.overall_mshr_miss_latency::pci_ide  83378303164                       # number of overall MSHR miss cycles
system.iocache.overall_mshr_miss_latency::total  83378303164                       # number of overall MSHR miss cycles
system.iocache.ReadReq_mshr_miss_rate::pci_ide            1                       # mshr miss rate for ReadReq accesses
system.iocache.ReadReq_mshr_miss_rate::total            1                       # mshr miss rate for ReadReq accesses
system.iocache.WriteLineReq_mshr_miss_rate::pci_ide     0.999981                       # mshr miss rate for WriteLineReq accesses
system.iocache.WriteLineReq_mshr_miss_rate::total     0.999981                       # mshr miss rate for WriteLineReq accesses
system.iocache.demand_mshr_miss_rate::pci_ide     0.999988                       # mshr miss rate for demand accesses
system.iocache.demand_mshr_miss_rate::total     0.999988                       # mshr miss rate for demand accesses
system.iocache.overall_mshr_miss_rate::pci_ide     0.999988                       # mshr miss rate for overall accesses
system.iocache.overall_mshr_miss_rate::total     0.999988                       # mshr miss rate for overall accesses
system.iocache.ReadReq_avg_mshr_miss_latency::pci_ide 164379.339358                       # average ReadReq mshr miss latency
system.iocache.ReadReq_avg_mshr_miss_latency::total 164379.339358                       # average ReadReq mshr miss latency
system.iocache.WriteLineReq_avg_mshr_miss_latency::pci_ide 67862.084868                       # average WriteLineReq mshr miss latency
system.iocache.WriteLineReq_avg_mshr_miss_latency::total 67862.084868                       # average WriteLineReq mshr miss latency
system.iocache.demand_avg_mshr_miss_latency::pci_ide 106824.181300                       # average overall mshr miss latency
system.iocache.demand_avg_mshr_miss_latency::total 106824.181300                       # average overall mshr miss latency
system.iocache.overall_avg_mshr_miss_latency::pci_ide 106824.181300                       # average overall mshr miss latency
system.iocache.overall_avg_mshr_miss_latency::total 106824.181300                       # average overall mshr miss latency
system.membus.snoop_filter.tot_requests     250092854                       # Total number of requests made to the snoop filter.
system.membus.snoop_filter.hit_single_requests    124719129                       # Number of requests hitting in the snoop filter with a single holder of the requested data.
system.membus.snoop_filter.hit_multi_requests      1262684                       # Number of requests hitting in the snoop filter with multiple (>1) holders of the requested data.
system.membus.snoop_filter.tot_snoops               0                       # Total number of snoops made to the snoop filter.
system.membus.snoop_filter.hit_single_snoops            0                       # Number of snoops hitting in the snoop filter with a single holder of the requested data.
system.membus.snoop_filter.hit_multi_snoops            0                       # Number of snoops hitting in the snoop filter with multiple (>1) holders of the requested data.
system.membus.pwrStateResidencyTicks::UNDEFINED 24846579347237000                       # Cumulative time (in ticks) in various power states
system.membus.trans_dist::ReadReq              130162                       # Transaction distribution
system.membus.trans_dist::ReadResp           98473745                       # Transaction distribution
system.membus.trans_dist::WriteReq              90422                       # Transaction distribution
system.membus.trans_dist::WriteResp             90422                       # Transaction distribution
system.membus.trans_dist::WritebackDirty     32467687                       # Transaction distribution
system.membus.trans_dist::WritebackClean     90079609                       # Transaction distribution
system.membus.trans_dist::WriteClean          1931093                       # Transaction distribution
system.membus.trans_dist::CleanEvict           315060                       # Transaction distribution
system.membus.trans_dist::UpgradeReq           126569                       # Transaction distribution
system.membus.trans_dist::SCUpgradeReq          58101                       # Transaction distribution
system.membus.trans_dist::UpgradeResp               2                       # Transaction distribution
system.membus.trans_dist::ReadExReq           7226230                       # Transaction distribution
system.membus.trans_dist::ReadExResp          7226230                       # Transaction distribution
system.membus.trans_dist::ReadCleanReq       66615939                       # Transaction distribution
system.membus.trans_dist::ReadSharedReq      31727644                       # Transaction distribution
system.membus.trans_dist::CleanSharedReq           70                       # Transaction distribution
system.membus.trans_dist::CleanInvalidReq      2034307                       # Transaction distribution
system.membus.trans_dist::InvalidateReq      19412119                       # Transaction distribution
system.membus.trans_dist::InvalidateResp          461                       # Transaction distribution
system.membus.pkt_count_system.iocache.mem_side::system.mem_ctrls.port      1868649                       # Packet count per connected master and slave (bytes)
system.membus.pkt_count_system.iocache.mem_side::total      1868649                       # Packet count per connected master and slave (bytes)
system.membus.pkt_count_system.cpu.icache.mem_side::system.bootmem.port           52                       # Packet count per connected master and slave (bytes)
system.membus.pkt_count_system.cpu.icache.mem_side::system.mem_ctrls.port    196828595                       # Packet count per connected master and slave (bytes)
system.membus.pkt_count_system.cpu.icache.mem_side::total    196828647                       # Packet count per connected master and slave (bytes)
system.membus.pkt_count_system.cpu.dcache.mem_side::system.bridge.slave       193546                       # Packet count per connected master and slave (bytes)
system.membus.pkt_count_system.cpu.dcache.mem_side::system.bootmem.port           12                       # Packet count per connected master and slave (bytes)
system.membus.pkt_count_system.cpu.dcache.mem_side::system.realview.gic.pio       238308                       # Packet count per connected master and slave (bytes)
system.membus.pkt_count_system.cpu.dcache.mem_side::system.mem_ctrls.port    156029349                       # Packet count per connected master and slave (bytes)
system.membus.pkt_count_system.cpu.dcache.mem_side::total    156461215                       # Packet count per connected master and slave (bytes)
system.membus.pkt_count_system.cpu.itb_walker_cache.mem_side::system.mem_ctrls.port       452010                       # Packet count per connected master and slave (bytes)
system.membus.pkt_count_system.cpu.itb_walker_cache.mem_side::total       452010                       # Packet count per connected master and slave (bytes)
system.membus.pkt_count_system.cpu.dtb_walker_cache.mem_side::system.mem_ctrls.port      2192087                       # Packet count per connected master and slave (bytes)
system.membus.pkt_count_system.cpu.dtb_walker_cache.mem_side::total      2192087                       # Packet count per connected master and slave (bytes)
system.membus.pkt_count::total              357802608                       # Packet count per connected master and slave (bytes)
system.membus.pkt_size_system.iocache.mem_side::system.mem_ctrls.port     49476480                       # Cumulative packet size per connected master and slave (bytes)
system.membus.pkt_size_system.iocache.mem_side::total     49476480                       # Cumulative packet size per connected master and slave (bytes)
system.membus.pkt_size_system.cpu.icache.mem_side::system.bootmem.port          416                       # Cumulative packet size per connected master and slave (bytes)
system.membus.pkt_size_system.cpu.icache.mem_side::system.mem_ctrls.port   8397871040                       # Cumulative packet size per connected master and slave (bytes)
system.membus.pkt_size_system.cpu.icache.mem_side::total   8397871456                       # Cumulative packet size per connected master and slave (bytes)
system.membus.pkt_size_system.cpu.dcache.mem_side::system.bridge.slave       158239                       # Cumulative packet size per connected master and slave (bytes)
system.membus.pkt_size_system.cpu.dcache.mem_side::system.bootmem.port           44                       # Cumulative packet size per connected master and slave (bytes)
system.membus.pkt_size_system.cpu.dcache.mem_side::system.realview.gic.pio       476616                       # Cumulative packet size per connected master and slave (bytes)
system.membus.pkt_size_system.cpu.dcache.mem_side::system.mem_ctrls.port   6158079268                       # Cumulative packet size per connected master and slave (bytes)
system.membus.pkt_size_system.cpu.dcache.mem_side::total   6158714167                       # Cumulative packet size per connected master and slave (bytes)
system.membus.pkt_size_system.cpu.itb_walker_cache.mem_side::system.mem_ctrls.port     17745920                       # Cumulative packet size per connected master and slave (bytes)
system.membus.pkt_size_system.cpu.itb_walker_cache.mem_side::total     17745920                       # Cumulative packet size per connected master and slave (bytes)
system.membus.pkt_size_system.cpu.dtb_walker_cache.mem_side::system.mem_ctrls.port     86986304                       # Cumulative packet size per connected master and slave (bytes)
system.membus.pkt_size_system.cpu.dtb_walker_cache.mem_side::total     86986304                       # Cumulative packet size per connected master and slave (bytes)
system.membus.pkt_size::total             14710794327                       # Cumulative packet size per connected master and slave (bytes)
system.membus.snoops                           203264                       # Total snoops (count)
system.membus.snoopTraffic                   12979264                       # Total snoop traffic (bytes)
system.membus.snoop_fanout::samples         127421563                       # Request fanout histogram
system.membus.snoop_fanout::mean             0.010465                       # Request fanout histogram
system.membus.snoop_fanout::stdev            0.115632                       # Request fanout histogram
system.membus.snoop_fanout::underflows              0      0.00%      0.00% # Request fanout histogram
system.membus.snoop_fanout::0               126280272     99.10%     99.10% # Request fanout histogram
system.membus.snoop_fanout::1                  949167      0.74%     99.85% # Request fanout histogram
system.membus.snoop_fanout::2                  192120      0.15%    100.00% # Request fanout histogram
system.membus.snoop_fanout::3                       4      0.00%    100.00% # Request fanout histogram
system.membus.snoop_fanout::4                       0      0.00%    100.00% # Request fanout histogram
system.membus.snoop_fanout::5                       0      0.00%    100.00% # Request fanout histogram
system.membus.snoop_fanout::overflows               0      0.00%    100.00% # Request fanout histogram
system.membus.snoop_fanout::min_value               0                       # Request fanout histogram
system.membus.snoop_fanout::max_value               3                       # Request fanout histogram
system.membus.snoop_fanout::total           127421563                       # Request fanout histogram
system.membus.reqLayer0.occupancy           162993499                       # Layer occupancy (ticks)
system.membus.reqLayer0.utilization               0.0                       # Layer utilization (%)
system.membus.reqLayer1.occupancy               43500                       # Layer occupancy (ticks)
system.membus.reqLayer1.utilization               0.0                       # Layer utilization (%)
system.membus.reqLayer2.occupancy           212735998                       # Layer occupancy (ticks)
system.membus.reqLayer2.utilization               0.0                       # Layer utilization (%)
system.membus.reqLayer6.occupancy        799168904389                       # Layer occupancy (ticks)
system.membus.reqLayer6.utilization               0.0                       # Layer utilization (%)
system.membus.respLayer2.occupancy         1592430799                       # Layer occupancy (ticks)
system.membus.respLayer2.utilization              0.0                       # Layer utilization (%)
system.membus.respLayer3.occupancy       348926688626                       # Layer occupancy (ticks)
system.membus.respLayer3.utilization              0.0                       # Layer utilization (%)
system.membus.respLayer4.occupancy       204883682277                       # Layer occupancy (ticks)
system.membus.respLayer4.utilization              0.0                       # Layer utilization (%)
system.membus.respLayer5.occupancy          948797924                       # Layer occupancy (ticks)
system.membus.respLayer5.utilization              0.0                       # Layer utilization (%)
system.membus.respLayer6.occupancy         4470742174                       # Layer occupancy (ticks)
system.membus.respLayer6.utilization              0.0                       # Layer utilization (%)
system.membus.badaddr_responder.pwrStateResidencyTicks::UNDEFINED 24846579347237000                       # Cumulative time (in ticks) in various power states
system.realview.pci_host.pwrStateResidencyTicks::UNDEFINED 24846579347237000                       # Cumulative time (in ticks) in various power states
system.pci_ide.pwrStateResidencyTicks::UNDEFINED 24846579347237000                       # Cumulative time (in ticks) in various power states
system.realview.clock24MHz.voltage_domain.voltage     3.300000                       # Voltage in Volts
system.realview.clock24MHz.clock                41667                       # Clock period in ticks
system.realview.realview_io.pwrStateResidencyTicks::UNDEFINED 24846579347237000                       # Cumulative time (in ticks) in various power states
system.realview.dcc.osc_cpu.clock               16667                       # Clock period in ticks
system.realview.dcc.osc_ddr.clock               25000                       # Clock period in ticks
system.realview.dcc.osc_hsbm.clock              25000                       # Clock period in ticks
system.realview.dcc.osc_pxl.clock               42105                       # Clock period in ticks
system.realview.dcc.osc_smb.clock               20000                       # Clock period in ticks
system.realview.dcc.osc_sys.clock               16667                       # Clock period in ticks
system.realview.energy_ctrl.pwrStateResidencyTicks::UNDEFINED 24846579347237000                       # Cumulative time (in ticks) in various power states
system.realview.gic.pwrStateResidencyTicks::UNDEFINED 24846579347237000                       # Cumulative time (in ticks) in various power states
system.realview.generic_timer.pwrStateResidencyTicks::UNDEFINED 24846579347237000                       # Cumulative time (in ticks) in various power states
system.realview.gicv2m.pwrStateResidencyTicks::UNDEFINED 24846579347237000                       # Cumulative time (in ticks) in various power states
system.realview.hdlcd.pwrStateResidencyTicks::UNDEFINED 24846579347237000                       # Cumulative time (in ticks) in various power states
system.realview.kmi0.pwrStateResidencyTicks::UNDEFINED 24846579347237000                       # Cumulative time (in ticks) in various power states
system.realview.kmi1.pwrStateResidencyTicks::UNDEFINED 24846579347237000                       # Cumulative time (in ticks) in various power states
system.realview.mcc.osc_clcd.clock              42105                       # Clock period in ticks
system.realview.mcc.osc_mcc.clock               20000                       # Clock period in ticks
system.realview.mcc.osc_peripheral.clock        41667                       # Clock period in ticks
system.realview.mcc.osc_system_bus.clock        41667                       # Clock period in ticks
system.realview.rtc.pwrStateResidencyTicks::UNDEFINED 24846579347237000                       # Cumulative time (in ticks) in various power states
system.realview.uart0.pwrStateResidencyTicks::UNDEFINED 24846579347237000                       # Cumulative time (in ticks) in various power states
system.realview.vgic.pwrStateResidencyTicks::UNDEFINED 24846579347237000                       # Cumulative time (in ticks) in various power states
system.cpu.kern.inst.arm                            0                       # number of arm instructions executed
system.cpu.kern.inst.quiesce                    52601                       # number of quiesce instructions executed

---------- End Simulation Statistics   ----------